
---------- Begin Simulation Statistics ----------
host_inst_rate                                 112646                       # Simulator instruction rate (inst/s)
host_mem_usage                                 333836                       # Number of bytes of host memory used
host_seconds                                   177.55                       # Real time elapsed on the host
host_tick_rate                              690692543                       # Simulator tick rate (ticks/s)
sim_freq                                 1000000000000                       # Frequency of simulated ticks
sim_insts                                    20000003                       # Number of instructions simulated
sim_seconds                                  0.122631                       # Number of seconds simulated
sim_ticks                                122630840000                       # Number of ticks simulated
system.cpu.dcache.ReadReq_accesses            5609782                       # number of ReadReq accesses(hits+misses)
system.cpu.dcache.ReadReq_avg_miss_latency 39529.898303                       # average ReadReq miss latency
system.cpu.dcache.ReadReq_avg_mshr_miss_latency 36386.337168                       # average ReadReq mshr miss latency
system.cpu.dcache.ReadReq_hits                2084398                       # number of ReadReq hits
system.cpu.dcache.ReadReq_miss_latency   139358071000                       # number of ReadReq miss cycles
system.cpu.dcache.ReadReq_miss_rate          0.628435                       # miss rate for ReadReq accesses
system.cpu.dcache.ReadReq_misses              3525384                       # number of ReadReq misses
system.cpu.dcache.ReadReq_mshr_hits              4079                       # number of ReadReq MSHR hits
system.cpu.dcache.ReadReq_mshr_miss_latency 128127391000                       # number of ReadReq MSHR miss cycles
system.cpu.dcache.ReadReq_mshr_miss_rate     0.627708                       # mshr miss rate for ReadReq accesses
system.cpu.dcache.ReadReq_mshr_misses         3521305                       # number of ReadReq MSHR misses
system.cpu.dcache.WriteReq_accesses            293301                       # number of WriteReq accesses(hits+misses)
system.cpu.dcache.WriteReq_avg_miss_latency 77730.151084                       # average WriteReq miss latency
system.cpu.dcache.WriteReq_avg_mshr_miss_latency 74981.863149                       # average WriteReq mshr miss latency
system.cpu.dcache.WriteReq_hits                285504                       # number of WriteReq hits
system.cpu.dcache.WriteReq_miss_latency     606061988                       # number of WriteReq miss cycles
system.cpu.dcache.WriteReq_miss_rate         0.026584                       # miss rate for WriteReq accesses
system.cpu.dcache.WriteReq_misses                7797                       # number of WriteReq misses
system.cpu.dcache.WriteReq_mshr_hits             2945                       # number of WriteReq MSHR hits
system.cpu.dcache.WriteReq_mshr_miss_latency    363812000                       # number of WriteReq MSHR miss cycles
system.cpu.dcache.WriteReq_mshr_miss_rate     0.016543                       # mshr miss rate for WriteReq accesses
system.cpu.dcache.WriteReq_mshr_misses           4852                       # number of WriteReq MSHR misses
system.cpu.dcache.avg_blocked_cycles::no_mshrs        12000                       # average number of cycles each access was blocked
system.cpu.dcache.avg_blocked_cycles::no_targets 71334.586998                       # average number of cycles each access was blocked
system.cpu.dcache.avg_refs                   0.672580                       # Average number of references to valid blocks.
system.cpu.dcache.blocked::no_mshrs                 1                       # number of cycles access was blocked
system.cpu.dcache.blocked::no_targets             523                       # number of cycles access was blocked
system.cpu.dcache.blocked_cycles::no_mshrs        12000                       # number of cycles access was blocked
system.cpu.dcache.blocked_cycles::no_targets     37307989                       # number of cycles access was blocked
system.cpu.dcache.cache_copies                      0                       # number of cache copies performed
system.cpu.dcache.demand_accesses             5903083                       # number of demand (read+write) accesses
system.cpu.dcache.demand_avg_miss_latency 39614.198363                       # average overall miss latency
system.cpu.dcache.demand_avg_mshr_miss_latency 36439.444699                       # average overall mshr miss latency
system.cpu.dcache.demand_hits                 2369902                       # number of demand (read+write) hits
system.cpu.dcache.demand_miss_latency    139964132988                       # number of demand (read+write) miss cycles
system.cpu.dcache.demand_miss_rate           0.598531                       # miss rate for demand accesses
system.cpu.dcache.demand_misses               3533181                       # number of demand (read+write) misses
system.cpu.dcache.demand_mshr_hits               7024                       # number of demand (read+write) MSHR hits
system.cpu.dcache.demand_mshr_miss_latency 128491203000                       # number of demand (read+write) MSHR miss cycles
system.cpu.dcache.demand_mshr_miss_rate      0.597342                       # mshr miss rate for demand accesses
system.cpu.dcache.demand_mshr_misses          3526157                       # number of demand (read+write) MSHR misses
system.cpu.dcache.fast_writes                       0                       # number of fast writes performed
system.cpu.dcache.mshr_cap_events                   0                       # number of times MSHR cap was activated
system.cpu.dcache.no_allocate_misses                0                       # Number of misses that were no-allocate
system.cpu.dcache.occ_%::0                   0.605014                       # Average percentage of cache occupancy
system.cpu.dcache.occ_blocks::0            619.534500                       # Average occupied blocks per context
system.cpu.dcache.overall_accesses            5903083                       # number of overall (read+write) accesses
system.cpu.dcache.overall_avg_miss_latency 39614.198363                       # average overall miss latency
system.cpu.dcache.overall_avg_mshr_miss_latency 36439.444699                       # average overall mshr miss latency
system.cpu.dcache.overall_avg_mshr_uncacheable_latency     no_value                       # average overall mshr uncacheable latency
system.cpu.dcache.overall_hits                2369902                       # number of overall hits
system.cpu.dcache.overall_miss_latency   139964132988                       # number of overall miss cycles
system.cpu.dcache.overall_miss_rate          0.598531                       # miss rate for overall accesses
system.cpu.dcache.overall_misses              3533181                       # number of overall misses
system.cpu.dcache.overall_mshr_hits              7024                       # number of overall MSHR hits
system.cpu.dcache.overall_mshr_miss_latency 128491203000                       # number of overall MSHR miss cycles
system.cpu.dcache.overall_mshr_miss_rate     0.597342                       # mshr miss rate for overall accesses
system.cpu.dcache.overall_mshr_misses         3526157                       # number of overall MSHR misses
system.cpu.dcache.overall_mshr_uncacheable_latency            0                       # number of overall MSHR uncacheable cycles
system.cpu.dcache.overall_mshr_uncacheable_misses            0                       # number of overall MSHR uncacheable misses
system.cpu.dcache.prefetch_accuracy          no_value                       # ratio of good prefetches to total prefetches
system.cpu.dcache.prefetch_hits                     0                       # number of prefetched blocks that were accessed
system.cpu.dcache.replacements                3524482                       # number of replacements
system.cpu.dcache.sampled_refs                3525333                       # Sample count of references to valid blocks.
system.cpu.dcache.soft_prefetch_mshr_full            0                       # number of mshr full events for SW prefetching instrutions
system.cpu.dcache.tagsinuse                619.534500                       # Cycle average of tags in use
system.cpu.dcache.total_refs                  2371070                       # Total number of references to valid blocks.
system.cpu.dcache.warmup_cycle                      0                       # Cycle when the warmup percentage was hit.
system.cpu.dcache.writebacks                     4506                       # number of writebacks
system.cpu.dtb.data_accesses                        0                       # DTB accesses
system.cpu.dtb.data_acv                             0                       # DTB access violations
system.cpu.dtb.data_hits                            0                       # DTB hits
system.cpu.dtb.data_misses                          0                       # DTB misses
system.cpu.dtb.fetch_accesses                       0                       # ITB accesses
system.cpu.dtb.fetch_acv                            0                       # ITB acv
system.cpu.dtb.fetch_hits                           0                       # ITB hits
system.cpu.dtb.fetch_misses                         0                       # ITB misses
system.cpu.dtb.read_accesses                        0                       # DTB read accesses
system.cpu.dtb.read_acv                             0                       # DTB read access violations
system.cpu.dtb.read_hits                            0                       # DTB read hits
system.cpu.dtb.read_misses                          0                       # DTB read misses
system.cpu.dtb.write_accesses                       0                       # DTB write accesses
system.cpu.dtb.write_acv                            0                       # DTB write access violations
system.cpu.dtb.write_hits                           0                       # DTB write hits
system.cpu.dtb.write_misses                         0                       # DTB write misses
system.cpu.icache.ReadReq_accesses           13536365                       # number of ReadReq accesses(hits+misses)
system.cpu.icache.ReadReq_avg_miss_latency 39299.131379                       # average ReadReq miss latency
system.cpu.icache.ReadReq_avg_mshr_miss_latency 35356.243950                       # average ReadReq mshr miss latency
system.cpu.icache.ReadReq_hits               13530839                       # number of ReadReq hits
system.cpu.icache.ReadReq_miss_latency      217167000                       # number of ReadReq miss cycles
system.cpu.icache.ReadReq_miss_rate          0.000408                       # miss rate for ReadReq accesses
system.cpu.icache.ReadReq_misses                 5526                       # number of ReadReq misses
system.cpu.icache.ReadReq_mshr_hits               360                       # number of ReadReq MSHR hits
system.cpu.icache.ReadReq_mshr_miss_latency    182615000                       # number of ReadReq MSHR miss cycles
system.cpu.icache.ReadReq_mshr_miss_rate     0.000382                       # mshr miss rate for ReadReq accesses
system.cpu.icache.ReadReq_mshr_misses            5165                       # number of ReadReq MSHR misses
system.cpu.icache.avg_blocked_cycles::no_mshrs     no_value                       # average number of cycles each access was blocked
system.cpu.icache.avg_blocked_cycles::no_targets     no_value                       # average number of cycles each access was blocked
system.cpu.icache.avg_refs                2619.210027                       # Average number of references to valid blocks.
system.cpu.icache.blocked::no_mshrs                 0                       # number of cycles access was blocked
system.cpu.icache.blocked::no_targets               0                       # number of cycles access was blocked
system.cpu.icache.blocked_cycles::no_mshrs            0                       # number of cycles access was blocked
system.cpu.icache.blocked_cycles::no_targets            0                       # number of cycles access was blocked
system.cpu.icache.cache_copies                      0                       # number of cache copies performed
system.cpu.icache.demand_accesses            13536365                       # number of demand (read+write) accesses
system.cpu.icache.demand_avg_miss_latency 39299.131379                       # average overall miss latency
system.cpu.icache.demand_avg_mshr_miss_latency 35356.243950                       # average overall mshr miss latency
system.cpu.icache.demand_hits                13530839                       # number of demand (read+write) hits
system.cpu.icache.demand_miss_latency       217167000                       # number of demand (read+write) miss cycles
system.cpu.icache.demand_miss_rate           0.000408                       # miss rate for demand accesses
system.cpu.icache.demand_misses                  5526                       # number of demand (read+write) misses
system.cpu.icache.demand_mshr_hits                360                       # number of demand (read+write) MSHR hits
system.cpu.icache.demand_mshr_miss_latency    182615000                       # number of demand (read+write) MSHR miss cycles
system.cpu.icache.demand_mshr_miss_rate      0.000382                       # mshr miss rate for demand accesses
system.cpu.icache.demand_mshr_misses             5165                       # number of demand (read+write) MSHR misses
system.cpu.icache.fast_writes                       0                       # number of fast writes performed
system.cpu.icache.mshr_cap_events                   0                       # number of times MSHR cap was activated
system.cpu.icache.no_allocate_misses                0                       # Number of misses that were no-allocate
system.cpu.icache.occ_%::0                   0.363043                       # Average percentage of cache occupancy
system.cpu.icache.occ_blocks::0            185.878068                       # Average occupied blocks per context
system.cpu.icache.overall_accesses           13536365                       # number of overall (read+write) accesses
system.cpu.icache.overall_avg_miss_latency 39299.131379                       # average overall miss latency
system.cpu.icache.overall_avg_mshr_miss_latency 35356.243950                       # average overall mshr miss latency
system.cpu.icache.overall_avg_mshr_uncacheable_latency     no_value                       # average overall mshr uncacheable latency
system.cpu.icache.overall_hits               13530839                       # number of overall hits
system.cpu.icache.overall_miss_latency      217167000                       # number of overall miss cycles
system.cpu.icache.overall_miss_rate          0.000408                       # miss rate for overall accesses
system.cpu.icache.overall_misses                 5526                       # number of overall misses
system.cpu.icache.overall_mshr_hits               360                       # number of overall MSHR hits
system.cpu.icache.overall_mshr_miss_latency    182615000                       # number of overall MSHR miss cycles
system.cpu.icache.overall_mshr_miss_rate     0.000382                       # mshr miss rate for overall accesses
system.cpu.icache.overall_mshr_misses            5165                       # number of overall MSHR misses
system.cpu.icache.overall_mshr_uncacheable_latency            0                       # number of overall MSHR uncacheable cycles
system.cpu.icache.overall_mshr_uncacheable_misses            0                       # number of overall MSHR uncacheable misses
system.cpu.icache.prefetch_accuracy          no_value                       # ratio of good prefetches to total prefetches
system.cpu.icache.prefetch_hits                     0                       # number of prefetched blocks that were accessed
system.cpu.icache.replacements                   4957                       # number of replacements
system.cpu.icache.sampled_refs                   5166                       # Sample count of references to valid blocks.
system.cpu.icache.soft_prefetch_mshr_full            0                       # number of mshr full events for SW prefetching instrutions
system.cpu.icache.tagsinuse                185.878068                       # Cycle average of tags in use
system.cpu.icache.total_refs                 13530839                       # Total number of references to valid blocks.
system.cpu.icache.warmup_cycle                      0                       # Cycle when the warmup percentage was hit.
system.cpu.icache.writebacks                        0                       # number of writebacks
system.cpu.idle_fraction                            0                       # Percentage of idle cycles
system.cpu.itb.data_accesses                        0                       # DTB accesses
system.cpu.itb.data_acv                             0                       # DTB access violations
system.cpu.itb.data_hits                            0                       # DTB hits
system.cpu.itb.data_misses                          0                       # DTB misses
system.cpu.itb.fetch_accesses                       2                       # ITB accesses
system.cpu.itb.fetch_acv                            0                       # ITB acv
system.cpu.itb.fetch_hits                           2                       # ITB hits
system.cpu.itb.fetch_misses                         0                       # ITB misses
system.cpu.itb.read_accesses                        0                       # DTB read accesses
system.cpu.itb.read_acv                             0                       # DTB read access violations
system.cpu.itb.read_hits                            0                       # DTB read hits
system.cpu.itb.read_misses                          0                       # DTB read misses
system.cpu.itb.write_accesses                       0                       # DTB write accesses
system.cpu.itb.write_acv                            0                       # DTB write access violations
system.cpu.itb.write_hits                           0                       # DTB write hits
system.cpu.itb.write_misses                         0                       # DTB write misses
system.cpu.not_idle_fraction                        1                       # Percentage of non-idle cycles
system.cpu.numCycles                                2                       # number of cpu cycles simulated
system.cpu.num_insts                                2                       # Number of instructions executed
system.cpu.num_refs                                 0                       # Number of memory references
system.cpu.workload.PROG:num_syscalls               3                       # Number of system calls
system.l2.HardPFReq_avg_mshr_miss_latency 64545.103330                       # average HardPFReq mshr miss latency
system.l2.HardPFReq_mshr_miss_latency    163488164032                       # number of HardPFReq MSHR miss cycles
system.l2.HardPFReq_mshr_miss_rate                inf                       # mshr miss rate for HardPFReq accesses
system.l2.HardPFReq_mshr_misses               2532929                       # number of HardPFReq MSHR misses
system.l2.ReadExReq_accesses                     4028                       # number of ReadExReq accesses(hits+misses)
system.l2.ReadExReq_avg_miss_latency     73632.987220                       # average ReadExReq miss latency
system.l2.ReadExReq_avg_mshr_miss_latency 58136.218375                       # average ReadExReq mshr miss latency
system.l2.ReadExReq_hits                          272                       # number of ReadExReq hits
system.l2.ReadExReq_miss_latency            276565500                       # number of ReadExReq miss cycles
system.l2.ReadExReq_miss_rate                0.932473                       # miss rate for ReadExReq accesses
system.l2.ReadExReq_misses                       3756                       # number of ReadExReq misses
system.l2.ReadExReq_mshr_hits                       1                       # number of ReadExReq MSHR hits
system.l2.ReadExReq_mshr_miss_latency       218301500                       # number of ReadExReq MSHR miss cycles
system.l2.ReadExReq_mshr_miss_rate           0.932224                       # mshr miss rate for ReadExReq accesses
system.l2.ReadExReq_mshr_misses                  3755                       # number of ReadExReq MSHR misses
system.l2.ReadReq_accesses                    3526471                       # number of ReadReq accesses(hits+misses)
system.l2.ReadReq_avg_miss_latency       89539.709475                       # average ReadReq miss latency
system.l2.ReadReq_avg_mshr_miss_latency  74303.383766                       # average ReadReq mshr miss latency
system.l2.ReadReq_hits                        2420060                       # number of ReadReq hits
system.l2.ReadReq_miss_latency            99067719500                       # number of ReadReq miss cycles
system.l2.ReadReq_miss_rate                  0.313745                       # miss rate for ReadReq accesses
system.l2.ReadReq_misses                      1106411                       # number of ReadReq misses
system.l2.ReadReq_mshr_hits                      1369                       # number of ReadReq MSHR hits
system.l2.ReadReq_mshr_miss_latency       82108285500                       # number of ReadReq MSHR miss cycles
system.l2.ReadReq_mshr_miss_rate             0.313356                       # mshr miss rate for ReadReq accesses
system.l2.ReadReq_mshr_misses                 1105041                       # number of ReadReq MSHR misses
system.l2.UpgradeReq_accesses                     933                       # number of UpgradeReq accesses(hits+misses)
system.l2.UpgradeReq_avg_miss_latency    74005.359057                       # average UpgradeReq miss latency
system.l2.UpgradeReq_avg_mshr_miss_latency 58622.186495                       # average UpgradeReq mshr miss latency
system.l2.UpgradeReq_miss_latency            69047000                       # number of UpgradeReq miss cycles
system.l2.UpgradeReq_miss_rate                      1                       # miss rate for UpgradeReq accesses
system.l2.UpgradeReq_misses                       933                       # number of UpgradeReq misses
system.l2.UpgradeReq_mshr_miss_latency       54694500                       # number of UpgradeReq MSHR miss cycles
system.l2.UpgradeReq_mshr_miss_rate                 1                       # mshr miss rate for UpgradeReq accesses
system.l2.UpgradeReq_mshr_misses                  933                       # number of UpgradeReq MSHR misses
system.l2.Writeback_accesses                     4506                       # number of Writeback accesses(hits+misses)
system.l2.Writeback_hits                         4506                       # number of Writeback hits
system.l2.avg_blocked_cycles::no_mshrs       no_value                       # average number of cycles each access was blocked
system.l2.avg_blocked_cycles::no_targets     no_value                       # average number of cycles each access was blocked
system.l2.avg_refs                           0.665649                       # Average number of references to valid blocks.
system.l2.blocked::no_mshrs                         0                       # number of cycles access was blocked
system.l2.blocked::no_targets                       0                       # number of cycles access was blocked
system.l2.blocked_cycles::no_mshrs                  0                       # number of cycles access was blocked
system.l2.blocked_cycles::no_targets                0                       # number of cycles access was blocked
system.l2.cache_copies                              0                       # number of cache copies performed
system.l2.demand_accesses                     3530499                       # number of demand (read+write) accesses
system.l2.demand_avg_miss_latency        89485.892663                       # average overall miss latency
system.l2.demand_avg_mshr_miss_latency   74248.632751                       # average overall mshr miss latency
system.l2.demand_hits                         2420332                       # number of demand (read+write) hits
system.l2.demand_miss_latency             99344285000                       # number of demand (read+write) miss cycles
system.l2.demand_miss_rate                   0.314450                       # miss rate for demand accesses
system.l2.demand_misses                       1110167                       # number of demand (read+write) misses
system.l2.demand_mshr_hits                       1370                       # number of demand (read+write) MSHR hits
system.l2.demand_mshr_miss_latency        82326587000                       # number of demand (read+write) MSHR miss cycles
system.l2.demand_mshr_miss_rate              0.314062                       # mshr miss rate for demand accesses
system.l2.demand_mshr_misses                  1108796                       # number of demand (read+write) MSHR misses
system.l2.fast_writes                               0                       # number of fast writes performed
system.l2.mshr_cap_events                           0                       # number of times MSHR cap was activated
system.l2.no_allocate_misses                        0                       # Number of misses that were no-allocate
system.l2.occ_%::0                           0.272328                       # Average percentage of cache occupancy
system.l2.occ_%::1                           0.000390                       # Average percentage of cache occupancy
system.l2.occ_blocks::0                   4461.814559                       # Average occupied blocks per context
system.l2.occ_blocks::1                      6.390292                       # Average occupied blocks per context
system.l2.overall_accesses                    3530499                       # number of overall (read+write) accesses
system.l2.overall_avg_miss_latency       89485.892663                       # average overall miss latency
system.l2.overall_avg_mshr_miss_latency  67499.536904                       # average overall mshr miss latency
system.l2.overall_avg_mshr_uncacheable_latency     no_value                       # average overall mshr uncacheable latency
system.l2.overall_hits                        2420332                       # number of overall hits
system.l2.overall_miss_latency            99344285000                       # number of overall miss cycles
system.l2.overall_miss_rate                  0.314450                       # miss rate for overall accesses
system.l2.overall_misses                      1110167                       # number of overall misses
system.l2.overall_mshr_hits                      1370                       # number of overall MSHR hits
system.l2.overall_mshr_miss_latency      245814751032                       # number of overall MSHR miss cycles
system.l2.overall_mshr_miss_rate             1.031504                       # mshr miss rate for overall accesses
system.l2.overall_mshr_misses                 3641725                       # number of overall MSHR misses
system.l2.overall_mshr_uncacheable_latency            0                       # number of overall MSHR uncacheable cycles
system.l2.overall_mshr_uncacheable_misses            0                       # number of overall MSHR uncacheable misses
system.l2.prefetch_accuracy                  0.954952                       # ratio of good prefetches to total prefetches
system.l2.prefetch_hits                       2418825                       # number of prefetched blocks that were accessed
system.l2.prefetcher.num_hwpf_already_in_prefetcher       206368                       # number of hwpf that were already in the prefetch queue
system.l2.prefetcher.num_hwpf_evicted               0                       # number of hwpf removed due to no buffer left
system.l2.prefetcher.num_hwpf_identified      3222732                       # number of hwpf identified
system.l2.prefetcher.num_hwpf_issued          3011587                       # number of hwpf issued
system.l2.prefetcher.num_hwpf_removed_MSHR_hit         4772                       # number of hwpf removed because MSHR allocated
system.l2.prefetcher.num_hwpf_span_page             0                       # number of hwpf spanning a virtual page
system.l2.prefetcher.num_hwpf_squashed_from_miss            0                       # number of hwpf that got squashed due to a miss aborting calculation time
system.l2.replacements                        3634961                       # number of replacements
system.l2.sampled_refs                        3639550                       # Sample count of references to valid blocks.
system.l2.soft_prefetch_mshr_full                   0                       # number of mshr full events for SW prefetching instrutions
system.l2.tagsinuse                       4468.204851                       # Cycle average of tags in use
system.l2.total_refs                          2422663                       # Total number of references to valid blocks.
system.l2.warmup_cycle                              0                       # Cycle when the warmup percentage was hit.
system.l2.writebacks                             4475                       # number of writebacks
system.switch_cpus.dtb.data_accesses          2832022                       # DTB accesses
system.switch_cpus.dtb.data_acv                     0                       # DTB access violations
system.switch_cpus.dtb.data_hits              2558233                       # DTB hits
system.switch_cpus.dtb.data_misses             273789                       # DTB misses
system.switch_cpus.dtb.fetch_accesses               0                       # ITB accesses
system.switch_cpus.dtb.fetch_acv                    0                       # ITB acv
system.switch_cpus.dtb.fetch_hits                   0                       # ITB hits
system.switch_cpus.dtb.fetch_misses                 0                       # ITB misses
system.switch_cpus.dtb.read_accesses          2682476                       # DTB read accesses
system.switch_cpus.dtb.read_acv                     0                       # DTB read access violations
system.switch_cpus.dtb.read_hits              2409028                       # DTB read hits
system.switch_cpus.dtb.read_misses             273448                       # DTB read misses
system.switch_cpus.dtb.write_accesses          149546                       # DTB write accesses
system.switch_cpus.dtb.write_acv                    0                       # DTB write access violations
system.switch_cpus.dtb.write_hits              149205                       # DTB write hits
system.switch_cpus.dtb.write_misses               341                       # DTB write misses
system.switch_cpus.idle_fraction                    1                       # Percentage of idle cycles
system.switch_cpus.itb.data_accesses                0                       # DTB accesses
system.switch_cpus.itb.data_acv                     0                       # DTB access violations
system.switch_cpus.itb.data_hits                    0                       # DTB hits
system.switch_cpus.itb.data_misses                  0                       # DTB misses
system.switch_cpus.itb.fetch_accesses        10273803                       # ITB accesses
system.switch_cpus.itb.fetch_acv                    0                       # ITB acv
system.switch_cpus.itb.fetch_hits            10273790                       # ITB hits
system.switch_cpus.itb.fetch_misses                13                       # ITB misses
system.switch_cpus.itb.read_accesses                0                       # DTB read accesses
system.switch_cpus.itb.read_acv                     0                       # DTB read access violations
system.switch_cpus.itb.read_hits                    0                       # DTB read hits
system.switch_cpus.itb.read_misses                  0                       # DTB read misses
system.switch_cpus.itb.write_accesses               0                       # DTB write accesses
system.switch_cpus.itb.write_acv                    0                       # DTB write access violations
system.switch_cpus.itb.write_hits                   0                       # DTB write hits
system.switch_cpus.itb.write_misses                 0                       # DTB write misses
system.switch_cpus.not_idle_fraction                0                       # Percentage of non-idle cycles
system.switch_cpus.numCycles                139590526                       # number of cpu cycles simulated
system.switch_cpus.num_insts                 10000001                       # Number of instructions executed
system.switch_cpus.num_refs                   2837031                       # Number of memory references
system.switch_cpus_1.BPredUnit.BTBCorrect            0                       # Number of correct BTB predictions (this stat may not work properly.
system.switch_cpus_1.BPredUnit.BTBHits        4204394                       # Number of BTB hits
system.switch_cpus_1.BPredUnit.BTBLookups      4396458                       # Number of BTB lookups
system.switch_cpus_1.BPredUnit.RASInCorrect           28                       # Number of incorrect RAS predictions.
system.switch_cpus_1.BPredUnit.condIncorrect        20488                       # Number of conditional branches incorrect
system.switch_cpus_1.BPredUnit.condPredicted      5242188                       # Number of conditional branches predicted
system.switch_cpus_1.BPredUnit.lookups        5387477                       # Number of BP lookups
system.switch_cpus_1.BPredUnit.usedRAS          53762                       # Number of times the RAS was used to get a target.
system.switch_cpus_1.commit.COM:branches      1639812                       # Number of branches committed
system.switch_cpus_1.commit.COM:bw_lim_events       274456                       # number cycles where commit BW limit reached
system.switch_cpus_1.commit.COM:bw_limited            0                       # number of insts not committed due to BW limits
system.switch_cpus_1.commit.COM:committed_per_cycle::samples     42454361                       # Number of insts commited each cycle
system.switch_cpus_1.commit.COM:committed_per_cycle::mean     0.242937                       # Number of insts commited each cycle
system.switch_cpus_1.commit.COM:committed_per_cycle::stdev     0.981061                       # Number of insts commited each cycle
system.switch_cpus_1.commit.COM:committed_per_cycle::underflows            0      0.00%      0.00% # Number of insts commited each cycle
system.switch_cpus_1.commit.COM:committed_per_cycle::0     38210656     90.00%     90.00% # Number of insts commited each cycle
system.switch_cpus_1.commit.COM:committed_per_cycle::1      2018104      4.75%     94.76% # Number of insts commited each cycle
system.switch_cpus_1.commit.COM:committed_per_cycle::2      1177957      2.77%     97.53% # Number of insts commited each cycle
system.switch_cpus_1.commit.COM:committed_per_cycle::3       139263      0.33%     97.86% # Number of insts commited each cycle
system.switch_cpus_1.commit.COM:committed_per_cycle::4        92278      0.22%     98.08% # Number of insts commited each cycle
system.switch_cpus_1.commit.COM:committed_per_cycle::5       323999      0.76%     98.84% # Number of insts commited each cycle
system.switch_cpus_1.commit.COM:committed_per_cycle::6       186350      0.44%     99.28% # Number of insts commited each cycle
system.switch_cpus_1.commit.COM:committed_per_cycle::7        31298      0.07%     99.35% # Number of insts commited each cycle
system.switch_cpus_1.commit.COM:committed_per_cycle::8       274456      0.65%    100.00% # Number of insts commited each cycle
system.switch_cpus_1.commit.COM:committed_per_cycle::overflows            0      0.00%    100.00% # Number of insts commited each cycle
system.switch_cpus_1.commit.COM:committed_per_cycle::min_value            0                       # Number of insts commited each cycle
system.switch_cpus_1.commit.COM:committed_per_cycle::max_value            8                       # Number of insts commited each cycle
system.switch_cpus_1.commit.COM:committed_per_cycle::total     42454361                       # Number of insts commited each cycle
system.switch_cpus_1.commit.COM:count        10313748                       # Number of instructions committed
system.switch_cpus_1.commit.COM:loads         2510912                       # Number of loads committed
system.switch_cpus_1.commit.COM:membars             0                       # Number of memory barriers committed
system.switch_cpus_1.commit.COM:refs          2655008                       # Number of memory references committed
system.switch_cpus_1.commit.COM:swp_count            0                       # Number of s/w prefetches committed
system.switch_cpus_1.commit.branchMispredicts        20166                       # The number of times a branch was mispredicted
system.switch_cpus_1.commit.commitCommittedInsts     10313748                       # The number of committed instructions
system.switch_cpus_1.commit.commitNonSpecStalls            1                       # The number of times commit has been forced to stall to communicate backwards
system.switch_cpus_1.commit.commitSquashedInsts     22091496                       # The number of squashed insts skipped by commit
system.switch_cpus_1.committedInsts          10000000                       # Number of Instructions Simulated
system.switch_cpus_1.committedInsts_total     10000000                       # Number of Instructions Simulated
system.switch_cpus_1.cpi                    10.567115                       # CPI: Cycles Per Instruction
system.switch_cpus_1.cpi_total              10.567115                       # CPI: Total CPI of All Threads
system.switch_cpus_1.decode.DECODE:BlockedCycles     27948223                       # Number of cycles decode is blocked
system.switch_cpus_1.decode.DECODE:BranchMispred          327                       # Number of times decode detected a branch misprediction
system.switch_cpus_1.decode.DECODE:BranchResolved        89163                       # Number of times decode resolved a branch
system.switch_cpus_1.decode.DECODE:DecodedInsts     33770515                       # Number of instructions handled by decode
system.switch_cpus_1.decode.DECODE:IdleCycles      7444054                       # Number of cycles decode is idle
system.switch_cpus_1.decode.DECODE:RunCycles      6778560                       # Number of cycles decode is running
system.switch_cpus_1.decode.DECODE:SquashCycles      2936301                       # Number of cycles decode is squashing
system.switch_cpus_1.decode.DECODE:SquashedInsts         1339                       # Number of squashed instructions handled by decode
system.switch_cpus_1.decode.DECODE:UnblockCycles       283523                       # Number of cycles decode is unblocking
system.switch_cpus_1.dtb.data_accesses        3998203                       # DTB accesses
system.switch_cpus_1.dtb.data_acv                   0                       # DTB access violations
system.switch_cpus_1.dtb.data_hits            3406407                       # DTB hits
system.switch_cpus_1.dtb.data_misses           591796                       # DTB misses
system.switch_cpus_1.dtb.fetch_accesses             0                       # ITB accesses
system.switch_cpus_1.dtb.fetch_acv                  0                       # ITB acv
system.switch_cpus_1.dtb.fetch_hits                 0                       # ITB hits
system.switch_cpus_1.dtb.fetch_misses               0                       # ITB misses
system.switch_cpus_1.dtb.read_accesses        3830599                       # DTB read accesses
system.switch_cpus_1.dtb.read_acv                   0                       # DTB read access violations
system.switch_cpus_1.dtb.read_hits            3239443                       # DTB read hits
system.switch_cpus_1.dtb.read_misses           591156                       # DTB read misses
system.switch_cpus_1.dtb.write_accesses        167604                       # DTB write accesses
system.switch_cpus_1.dtb.write_acv                  0                       # DTB write access violations
system.switch_cpus_1.dtb.write_hits            166964                       # DTB write hits
system.switch_cpus_1.dtb.write_misses             640                       # DTB write misses
system.switch_cpus_1.fetch.Branches           5387477                       # Number of branches that fetch encountered
system.switch_cpus_1.fetch.CacheLines         3262573                       # Number of cache lines fetched
system.switch_cpus_1.fetch.Cycles            10601779                       # Number of cycles fetch has run and was not squashing or blocked
system.switch_cpus_1.fetch.IcacheSquashes         4350                       # Number of outstanding Icache misses that were squashed
system.switch_cpus_1.fetch.Insts             35215529                       # Number of instructions fetch has processed
system.switch_cpus_1.fetch.SquashCycles        316070                       # Number of cycles fetch has spent squashing
system.switch_cpus_1.fetch.branchRate        0.050983                       # Number of branch fetches per cycle
system.switch_cpus_1.fetch.icacheStallCycles      3262573                       # Number of cycles fetch is stalled on an Icache miss
system.switch_cpus_1.fetch.predictedBranches      4258156                       # Number of branches that fetch has predicted taken
system.switch_cpus_1.fetch.rate              0.333256                       # Number of inst fetches per cycle
system.switch_cpus_1.fetch.rateDist::samples     45390662                       # Number of instructions fetched each cycle (Total)
system.switch_cpus_1.fetch.rateDist::mean     0.775832                       # Number of instructions fetched each cycle (Total)
system.switch_cpus_1.fetch.rateDist::stdev     1.995230                       # Number of instructions fetched each cycle (Total)
system.switch_cpus_1.fetch.rateDist::underflows            0      0.00%      0.00% # Number of instructions fetched each cycle (Total)
system.switch_cpus_1.fetch.rateDist::0       38051531     83.83%     83.83% # Number of instructions fetched each cycle (Total)
system.switch_cpus_1.fetch.rateDist::1         936541      2.06%     85.89% # Number of instructions fetched each cycle (Total)
system.switch_cpus_1.fetch.rateDist::2          74591      0.16%     86.06% # Number of instructions fetched each cycle (Total)
system.switch_cpus_1.fetch.rateDist::3          63970      0.14%     86.20% # Number of instructions fetched each cycle (Total)
system.switch_cpus_1.fetch.rateDist::4        3952367      8.71%     94.91% # Number of instructions fetched each cycle (Total)
system.switch_cpus_1.fetch.rateDist::5          55483      0.12%     95.03% # Number of instructions fetched each cycle (Total)
system.switch_cpus_1.fetch.rateDist::6          82064      0.18%     95.21% # Number of instructions fetched each cycle (Total)
system.switch_cpus_1.fetch.rateDist::7          34291      0.08%     95.29% # Number of instructions fetched each cycle (Total)
system.switch_cpus_1.fetch.rateDist::8        2139824      4.71%    100.00% # Number of instructions fetched each cycle (Total)
system.switch_cpus_1.fetch.rateDist::overflows            0      0.00%    100.00% # Number of instructions fetched each cycle (Total)
system.switch_cpus_1.fetch.rateDist::min_value            0                       # Number of instructions fetched each cycle (Total)
system.switch_cpus_1.fetch.rateDist::max_value            8                       # Number of instructions fetched each cycle (Total)
system.switch_cpus_1.fetch.rateDist::total     45390662                       # Number of instructions fetched each cycle (Total)
system.switch_cpus_1.idleCycles              60280491                       # Total number of cycles that the CPU has spent unscheduled due to idling
system.switch_cpus_1.iew.EXEC:branches        2328847                       # Number of branches executed
system.switch_cpus_1.iew.EXEC:nop              363264                       # number of nop insts executed
system.switch_cpus_1.iew.EXEC:rate           0.135113                       # Inst execution rate
system.switch_cpus_1.iew.EXEC:refs            4004585                       # number of memory reference insts executed
system.switch_cpus_1.iew.EXEC:stores           167604                       # Number of stores executed
system.switch_cpus_1.iew.EXEC:swp                   0                       # number of swp insts executed
system.switch_cpus_1.iew.WB:consumers        11933777                       # num instructions consuming a value
system.switch_cpus_1.iew.WB:count            13663276                       # cumulative count of insts written-back
system.switch_cpus_1.iew.WB:fanout           0.650503                       # average fanout of values written-back
system.switch_cpus_1.iew.WB:penalized               0                       # number of instrctions required to write to 'other' IQ
system.switch_cpus_1.iew.WB:penalized_rate            0                       # fraction of instructions written-back that wrote to 'other' IQ
system.switch_cpus_1.iew.WB:producers         7762958                       # num instructions producing a value
system.switch_cpus_1.iew.WB:rate             0.129300                       # insts written-back per cycle
system.switch_cpus_1.iew.WB:sent             14256146                       # cumulative count of insts sent to commit
system.switch_cpus_1.iew.branchMispredicts        23025                       # Number of branch mispredicts detected at execute
system.switch_cpus_1.iew.iewBlockCycles      17633014                       # Number of cycles IEW is blocking
system.switch_cpus_1.iew.iewDispLoadInsts      8757649                       # Number of dispatched load instructions
system.switch_cpus_1.iew.iewDispNonSpecInsts            1                       # Number of dispatched non-speculative instructions
system.switch_cpus_1.iew.iewDispSquashedInsts        20195                       # Number of squashed instructions skipped by dispatch
system.switch_cpus_1.iew.iewDispStoreInsts       184081                       # Number of dispatched store instructions
system.switch_cpus_1.iew.iewDispatchedInsts     32626058                       # Number of instructions dispatched to IQ
system.switch_cpus_1.iew.iewExecLoadInsts      3836981                       # Number of load instructions executed
system.switch_cpus_1.iew.iewExecSquashedInsts        19270                       # Number of squashed instructions skipped in execute
system.switch_cpus_1.iew.iewExecutedInsts     14277582                       # Number of executed instructions
system.switch_cpus_1.iew.iewIQFullEvents       807834                       # Number of times the IQ has become full, causing a stall
system.switch_cpus_1.iew.iewIdleCycles              0                       # Number of cycles IEW is idle
system.switch_cpus_1.iew.iewLSQFullEvents          813                       # Number of times the LSQ has become full, causing a stall
system.switch_cpus_1.iew.iewSquashCycles      2936301                       # Number of cycles IEW is squashing
system.switch_cpus_1.iew.iewUnblockCycles      1430604                       # Number of cycles IEW is unblocking
system.switch_cpus_1.iew.lsq.thread.0.blockedLoads            0                       # Number of blocked loads due to partial load-store forwarding
system.switch_cpus_1.iew.lsq.thread.0.cacheBlocked         6038                       # Number of times an access to memory failed due to the cache being blocked
system.switch_cpus_1.iew.lsq.thread.0.forwLoads        33164                       # Number of loads that had data forwarded from stores
system.switch_cpus_1.iew.lsq.thread.0.ignoredResponses          282                       # Number of memory responses ignored because the instruction is squashed
system.switch_cpus_1.iew.lsq.thread.0.invAddrLoads            0                       # Number of loads ignored due to an invalid address
system.switch_cpus_1.iew.lsq.thread.0.invAddrSwpfs            0                       # Number of software prefetches ignored due to an invalid address
system.switch_cpus_1.iew.lsq.thread.0.memOrderViolation          580                       # Number of memory ordering violations
system.switch_cpus_1.iew.lsq.thread.0.rescheduledLoads            0                       # Number of loads that were rescheduled
system.switch_cpus_1.iew.lsq.thread.0.squashedLoads      6246716                       # Number of loads squashed
system.switch_cpus_1.iew.lsq.thread.0.squashedStores        39985                       # Number of stores squashed
system.switch_cpus_1.iew.memOrderViolationEvents          580                       # Number of memory order violations
system.switch_cpus_1.iew.predictedNotTakenIncorrect         7439                       # Number of branches that were predicted not taken incorrectly
system.switch_cpus_1.iew.predictedTakenIncorrect        15586                       # Number of branches that were predicted taken incorrectly
system.switch_cpus_1.ipc                     0.094633                       # IPC: Instructions Per Cycle
system.switch_cpus_1.ipc_total               0.094633                       # IPC: Total IPC of All Threads
system.switch_cpus_1.iq.ISSUE:FU_type_0::No_OpClass            0      0.00%      0.00% # Type of FU issued
system.switch_cpus_1.iq.ISSUE:FU_type_0::IntAlu     10279241     71.90%     71.90% # Type of FU issued
system.switch_cpus_1.iq.ISSUE:FU_type_0::IntMult         1084      0.01%     71.91% # Type of FU issued
system.switch_cpus_1.iq.ISSUE:FU_type_0::IntDiv            0      0.00%     71.91% # Type of FU issued
system.switch_cpus_1.iq.ISSUE:FU_type_0::FloatAdd         4271      0.03%     71.94% # Type of FU issued
system.switch_cpus_1.iq.ISSUE:FU_type_0::FloatCmp            0      0.00%     71.94% # Type of FU issued
system.switch_cpus_1.iq.ISSUE:FU_type_0::FloatCvt         1100      0.01%     71.94% # Type of FU issued
system.switch_cpus_1.iq.ISSUE:FU_type_0::FloatMult          220      0.00%     71.95% # Type of FU issued
system.switch_cpus_1.iq.ISSUE:FU_type_0::FloatDiv            0      0.00%     71.95% # Type of FU issued
system.switch_cpus_1.iq.ISSUE:FU_type_0::FloatSqrt            0      0.00%     71.95% # Type of FU issued
system.switch_cpus_1.iq.ISSUE:FU_type_0::MemRead      3841627     26.87%     98.82% # Type of FU issued
system.switch_cpus_1.iq.ISSUE:FU_type_0::MemWrite       169309      1.18%    100.00% # Type of FU issued
system.switch_cpus_1.iq.ISSUE:FU_type_0::IprAccess            0      0.00%    100.00% # Type of FU issued
system.switch_cpus_1.iq.ISSUE:FU_type_0::InstPrefetch            0      0.00%    100.00% # Type of FU issued
system.switch_cpus_1.iq.ISSUE:FU_type_0::total     14296852                       # Type of FU issued
system.switch_cpus_1.iq.ISSUE:fu_busy_cnt         8833                       # FU busy when requested
system.switch_cpus_1.iq.ISSUE:fu_busy_rate     0.000618                       # FU busy rate (busy events/executed inst)
system.switch_cpus_1.iq.ISSUE:fu_full::No_OpClass            0      0.00%      0.00% # attempts to use FU when none available
system.switch_cpus_1.iq.ISSUE:fu_full::IntAlu           69      0.78%      0.78% # attempts to use FU when none available
system.switch_cpus_1.iq.ISSUE:fu_full::IntMult            0      0.00%      0.78% # attempts to use FU when none available
system.switch_cpus_1.iq.ISSUE:fu_full::IntDiv            0      0.00%      0.78% # attempts to use FU when none available
system.switch_cpus_1.iq.ISSUE:fu_full::FloatAdd            0      0.00%      0.78% # attempts to use FU when none available
system.switch_cpus_1.iq.ISSUE:fu_full::FloatCmp            0      0.00%      0.78% # attempts to use FU when none available
system.switch_cpus_1.iq.ISSUE:fu_full::FloatCvt            0      0.00%      0.78% # attempts to use FU when none available
system.switch_cpus_1.iq.ISSUE:fu_full::FloatMult            0      0.00%      0.78% # attempts to use FU when none available
system.switch_cpus_1.iq.ISSUE:fu_full::FloatDiv            0      0.00%      0.78% # attempts to use FU when none available
system.switch_cpus_1.iq.ISSUE:fu_full::FloatSqrt            0      0.00%      0.78% # attempts to use FU when none available
system.switch_cpus_1.iq.ISSUE:fu_full::MemRead         4968     56.24%     57.02% # attempts to use FU when none available
system.switch_cpus_1.iq.ISSUE:fu_full::MemWrite         3796     42.98%    100.00% # attempts to use FU when none available
system.switch_cpus_1.iq.ISSUE:fu_full::IprAccess            0      0.00%    100.00% # attempts to use FU when none available
system.switch_cpus_1.iq.ISSUE:fu_full::InstPrefetch            0      0.00%    100.00% # attempts to use FU when none available
system.switch_cpus_1.iq.ISSUE:issued_per_cycle::samples     45390662                       # Number of insts issued each cycle
system.switch_cpus_1.iq.ISSUE:issued_per_cycle::mean     0.314973                       # Number of insts issued each cycle
system.switch_cpus_1.iq.ISSUE:issued_per_cycle::stdev     0.700104                       # Number of insts issued each cycle
system.switch_cpus_1.iq.ISSUE:issued_per_cycle::underflows            0      0.00%      0.00% # Number of insts issued each cycle
system.switch_cpus_1.iq.ISSUE:issued_per_cycle::0     35119447     77.37%     77.37% # Number of insts issued each cycle
system.switch_cpus_1.iq.ISSUE:issued_per_cycle::1      7900288     17.41%     94.78% # Number of insts issued each cycle
system.switch_cpus_1.iq.ISSUE:issued_per_cycle::2      1116439      2.46%     97.24% # Number of insts issued each cycle
system.switch_cpus_1.iq.ISSUE:issued_per_cycle::3       975841      2.15%     99.39% # Number of insts issued each cycle
system.switch_cpus_1.iq.ISSUE:issued_per_cycle::4       176926      0.39%     99.78% # Number of insts issued each cycle
system.switch_cpus_1.iq.ISSUE:issued_per_cycle::5        86794      0.19%     99.97% # Number of insts issued each cycle
system.switch_cpus_1.iq.ISSUE:issued_per_cycle::6        10230      0.02%     99.99% # Number of insts issued each cycle
system.switch_cpus_1.iq.ISSUE:issued_per_cycle::7         4467      0.01%    100.00% # Number of insts issued each cycle
system.switch_cpus_1.iq.ISSUE:issued_per_cycle::8          230      0.00%    100.00% # Number of insts issued each cycle
system.switch_cpus_1.iq.ISSUE:issued_per_cycle::overflows            0      0.00%    100.00% # Number of insts issued each cycle
system.switch_cpus_1.iq.ISSUE:issued_per_cycle::min_value            0                       # Number of insts issued each cycle
system.switch_cpus_1.iq.ISSUE:issued_per_cycle::max_value            8                       # Number of insts issued each cycle
system.switch_cpus_1.iq.ISSUE:issued_per_cycle::total     45390662                       # Number of insts issued each cycle
system.switch_cpus_1.iq.ISSUE:rate           0.135296                       # Inst issue rate
system.switch_cpus_1.iq.iqInstsAdded         32262793                       # Number of instructions added to the IQ (excludes non-spec)
system.switch_cpus_1.iq.iqInstsIssued        14296852                       # Number of instructions issued
system.switch_cpus_1.iq.iqNonSpecInstsAdded            1                       # Number of non-speculative instructions added to the IQ
system.switch_cpus_1.iq.iqSquashedInstsExamined     22243058                       # Number of squashed instructions iterated over during squash; mainly for profiling
system.switch_cpus_1.iq.iqSquashedInstsIssued          424                       # Number of squashed instructions issued
system.switch_cpus_1.iq.iqSquashedOperandsExamined     31589759                       # Number of squashed operands that are examined and possibly removed from graph
system.switch_cpus_1.itb.data_accesses              0                       # DTB accesses
system.switch_cpus_1.itb.data_acv                   0                       # DTB access violations
system.switch_cpus_1.itb.data_hits                  0                       # DTB hits
system.switch_cpus_1.itb.data_misses                0                       # DTB misses
system.switch_cpus_1.itb.fetch_accesses       3262648                       # ITB accesses
system.switch_cpus_1.itb.fetch_acv                  0                       # ITB acv
system.switch_cpus_1.itb.fetch_hits           3262573                       # ITB hits
system.switch_cpus_1.itb.fetch_misses              75                       # ITB misses
system.switch_cpus_1.itb.read_accesses              0                       # DTB read accesses
system.switch_cpus_1.itb.read_acv                   0                       # DTB read access violations
system.switch_cpus_1.itb.read_hits                  0                       # DTB read hits
system.switch_cpus_1.itb.read_misses                0                       # DTB read misses
system.switch_cpus_1.itb.write_accesses             0                       # DTB write accesses
system.switch_cpus_1.itb.write_acv                  0                       # DTB write access violations
system.switch_cpus_1.itb.write_hits                 0                       # DTB write hits
system.switch_cpus_1.itb.write_misses               0                       # DTB write misses
system.switch_cpus_1.memDep0.conflictingLoads        66634                       # Number of conflicting loads.
system.switch_cpus_1.memDep0.conflictingStores         2426                       # Number of conflicting stores.
system.switch_cpus_1.memDep0.insertedLoads      8757649                       # Number of loads inserted to the mem dependence unit.
system.switch_cpus_1.memDep0.insertedStores       184081                       # Number of stores inserted to the mem dependence unit.
system.switch_cpus_1.numCycles              105671153                       # number of cpu cycles simulated
system.switch_cpus_1.rename.RENAME:BlockCycles     24232348                       # Number of cycles rename is blocking
system.switch_cpus_1.rename.RENAME:CommittedMaps      8255878                       # Number of HB maps that are committed
system.switch_cpus_1.rename.RENAME:IQFullEvents      3737208                       # Number of times rename has blocked due to IQ full
system.switch_cpus_1.rename.RENAME:IdleCycles      8318378                       # Number of cycles rename is idle
system.switch_cpus_1.rename.RENAME:LSQFullEvents        27067                       # Number of times rename has blocked due to LSQ full
system.switch_cpus_1.rename.RENAME:ROBFullEvents         1160                       # Number of times rename has blocked due to ROB full
system.switch_cpus_1.rename.RENAME:RenameLookups     52865730                       # Number of register rename lookups that rename has made
system.switch_cpus_1.rename.RENAME:RenamedInsts     32843854                       # Number of instructions processed by rename
system.switch_cpus_1.rename.RENAME:RenamedOperands     27334261                       # Number of destination operands rename has renamed
system.switch_cpus_1.rename.RENAME:RunCycles      6258570                       # Number of cycles rename is running
system.switch_cpus_1.rename.RENAME:SquashCycles      2936301                       # Number of cycles rename is squashing
system.switch_cpus_1.rename.RENAME:UnblockCycles      3645053                       # Number of cycles rename is unblocking
system.switch_cpus_1.rename.RENAME:UndoneMaps     19078317                       # Number of HB maps that are undone due to squashing
system.switch_cpus_1.rename.RENAME:serializeStallCycles           11                       # count of cycles rename stalled for serializing inst
system.switch_cpus_1.rename.RENAME:serializingInsts            1                       # count of serializing insts renamed
system.switch_cpus_1.rename.RENAME:skidInsts      7284299                       # count of insts added to the skid buffer
system.switch_cpus_1.rename.RENAME:tempSerializingInsts            1                       # count of temporary serializing insts renamed
system.switch_cpus_1.timesIdled               1156456                       # Number of times that the entire CPU went into an idle state and unscheduled itself

---------- End Simulation Statistics   ----------
