
---------- Begin Simulation Statistics ----------
host_inst_rate                                 267311                       # Simulator instruction rate (inst/s)
host_mem_usage                                 397168                       # Number of bytes of host memory used
host_seconds                                    74.82                       # Real time elapsed on the host
host_tick_rate                              261295784                       # Simulator tick rate (ticks/s)
sim_freq                                 1000000000000                       # Frequency of simulated ticks
sim_insts                                    20000006                       # Number of instructions simulated
sim_seconds                                  0.019550                       # Number of seconds simulated
sim_ticks                                 19550022000                       # Number of ticks simulated
system.cpu.dcache.ReadReq_accesses            2923638                       # number of ReadReq accesses(hits+misses)
system.cpu.dcache.ReadReq_avg_miss_latency 21275.771068                       # average ReadReq miss latency
system.cpu.dcache.ReadReq_avg_mshr_miss_latency 11081.226538                       # average ReadReq mshr miss latency
system.cpu.dcache.ReadReq_hits                2778320                       # number of ReadReq hits
system.cpu.dcache.ReadReq_miss_latency     3091752500                       # number of ReadReq miss cycles
system.cpu.dcache.ReadReq_miss_rate          0.049705                       # miss rate for ReadReq accesses
system.cpu.dcache.ReadReq_misses               145318                       # number of ReadReq misses
system.cpu.dcache.ReadReq_mshr_hits             93106                       # number of ReadReq MSHR hits
system.cpu.dcache.ReadReq_mshr_miss_latency    578573000                       # number of ReadReq MSHR miss cycles
system.cpu.dcache.ReadReq_mshr_miss_rate     0.017859                       # mshr miss rate for ReadReq accesses
system.cpu.dcache.ReadReq_mshr_misses           52212                       # number of ReadReq MSHR misses
system.cpu.dcache.WriteReq_accesses           1252170                       # number of WriteReq accesses(hits+misses)
system.cpu.dcache.WriteReq_avg_miss_latency 48641.756171                       # average WriteReq miss latency
system.cpu.dcache.WriteReq_avg_mshr_miss_latency 44514.796831                       # average WriteReq mshr miss latency
system.cpu.dcache.WriteReq_hits               1068566                       # number of WriteReq hits
system.cpu.dcache.WriteReq_miss_latency    8930821000                       # number of WriteReq miss cycles
system.cpu.dcache.WriteReq_miss_rate         0.146629                       # miss rate for WriteReq accesses
system.cpu.dcache.WriteReq_misses              183604                       # number of WriteReq misses
system.cpu.dcache.WriteReq_mshr_hits           105344                       # number of WriteReq MSHR hits
system.cpu.dcache.WriteReq_mshr_miss_latency   3483728000                       # number of WriteReq MSHR miss cycles
system.cpu.dcache.WriteReq_mshr_miss_rate     0.062500                       # mshr miss rate for WriteReq accesses
system.cpu.dcache.WriteReq_mshr_misses          78260                       # number of WriteReq MSHR misses
system.cpu.dcache.avg_blocked_cycles::no_mshrs     no_value                       # average number of cycles each access was blocked
system.cpu.dcache.avg_blocked_cycles::no_targets 40937.185787                       # average number of cycles each access was blocked
system.cpu.dcache.avg_refs                  51.141664                       # Average number of references to valid blocks.
system.cpu.dcache.blocked::no_mshrs                 0                       # number of cycles access was blocked
system.cpu.dcache.blocked::no_targets           35207                       # number of cycles access was blocked
system.cpu.dcache.blocked_cycles::no_mshrs            0                       # number of cycles access was blocked
system.cpu.dcache.blocked_cycles::no_targets   1441275500                       # number of cycles access was blocked
system.cpu.dcache.cache_copies                      0                       # number of cache copies performed
system.cpu.dcache.demand_accesses             4175808                       # number of demand (read+write) accesses
system.cpu.dcache.demand_avg_miss_latency 36551.442287                       # average overall miss latency
system.cpu.dcache.demand_avg_mshr_miss_latency 31135.423692                       # average overall mshr miss latency
system.cpu.dcache.demand_hits                 3846886                       # number of demand (read+write) hits
system.cpu.dcache.demand_miss_latency     12022573500                       # number of demand (read+write) miss cycles
system.cpu.dcache.demand_miss_rate           0.078768                       # miss rate for demand accesses
system.cpu.dcache.demand_misses                328922                       # number of demand (read+write) misses
system.cpu.dcache.demand_mshr_hits             198450                       # number of demand (read+write) MSHR hits
system.cpu.dcache.demand_mshr_miss_latency   4062301000                       # number of demand (read+write) MSHR miss cycles
system.cpu.dcache.demand_mshr_miss_rate      0.031245                       # mshr miss rate for demand accesses
system.cpu.dcache.demand_mshr_misses           130472                       # number of demand (read+write) MSHR misses
system.cpu.dcache.fast_writes                       0                       # number of fast writes performed
system.cpu.dcache.mshr_cap_events                   0                       # number of times MSHR cap was activated
system.cpu.dcache.no_allocate_misses                0                       # Number of misses that were no-allocate
system.cpu.dcache.occ_%::0                   0.990413                       # Average percentage of cache occupancy
system.cpu.dcache.occ_blocks::0           1014.182840                       # Average occupied blocks per context
system.cpu.dcache.overall_accesses            4175808                       # number of overall (read+write) accesses
system.cpu.dcache.overall_avg_miss_latency 36551.442287                       # average overall miss latency
system.cpu.dcache.overall_avg_mshr_miss_latency 31135.423692                       # average overall mshr miss latency
system.cpu.dcache.overall_avg_mshr_uncacheable_latency     no_value                       # average overall mshr uncacheable latency
system.cpu.dcache.overall_hits                3846886                       # number of overall hits
system.cpu.dcache.overall_miss_latency    12022573500                       # number of overall miss cycles
system.cpu.dcache.overall_miss_rate          0.078768                       # miss rate for overall accesses
system.cpu.dcache.overall_misses               328922                       # number of overall misses
system.cpu.dcache.overall_mshr_hits            198450                       # number of overall MSHR hits
system.cpu.dcache.overall_mshr_miss_latency   4062301000                       # number of overall MSHR miss cycles
system.cpu.dcache.overall_mshr_miss_rate     0.031245                       # mshr miss rate for overall accesses
system.cpu.dcache.overall_mshr_misses          130472                       # number of overall MSHR misses
system.cpu.dcache.overall_mshr_uncacheable_latency            0                       # number of overall MSHR uncacheable cycles
system.cpu.dcache.overall_mshr_uncacheable_misses            0                       # number of overall MSHR uncacheable misses
system.cpu.dcache.prefetch_accuracy          no_value                       # ratio of good prefetches to total prefetches
system.cpu.dcache.prefetch_hits                     0                       # number of prefetched blocks that were accessed
system.cpu.dcache.replacements                  77274                       # number of replacements
system.cpu.dcache.sampled_refs                  78298                       # Sample count of references to valid blocks.
system.cpu.dcache.soft_prefetch_mshr_full            0                       # number of mshr full events for SW prefetching instrutions
system.cpu.dcache.tagsinuse               1014.182840                       # Cycle average of tags in use
system.cpu.dcache.total_refs                  4004290                       # Total number of references to valid blocks.
system.cpu.dcache.warmup_cycle           500382491000                       # Cycle when the warmup percentage was hit.
system.cpu.dcache.writebacks                    77243                       # number of writebacks
system.cpu.dtb.data_accesses                        0                       # DTB accesses
system.cpu.dtb.data_acv                             0                       # DTB access violations
system.cpu.dtb.data_hits                            0                       # DTB hits
system.cpu.dtb.data_misses                          0                       # DTB misses
system.cpu.dtb.fetch_accesses                       0                       # ITB accesses
system.cpu.dtb.fetch_acv                            0                       # ITB acv
system.cpu.dtb.fetch_hits                           0                       # ITB hits
system.cpu.dtb.fetch_misses                         0                       # ITB misses
system.cpu.dtb.read_accesses                        0                       # DTB read accesses
system.cpu.dtb.read_acv                             0                       # DTB read access violations
system.cpu.dtb.read_hits                            0                       # DTB read hits
system.cpu.dtb.read_misses                          0                       # DTB read misses
system.cpu.dtb.write_accesses                       0                       # DTB write accesses
system.cpu.dtb.write_acv                            0                       # DTB write access violations
system.cpu.dtb.write_hits                           0                       # DTB write hits
system.cpu.dtb.write_misses                         0                       # DTB write misses
system.cpu.icache.ReadReq_accesses           12542333                       # number of ReadReq accesses(hits+misses)
system.cpu.icache.ReadReq_avg_miss_latency        62700                       # average ReadReq miss latency
system.cpu.icache.ReadReq_avg_mshr_miss_latency 60866.666667                       # average ReadReq mshr miss latency
system.cpu.icache.ReadReq_hits               12542283                       # number of ReadReq hits
system.cpu.icache.ReadReq_miss_latency        3135000                       # number of ReadReq miss cycles
system.cpu.icache.ReadReq_miss_rate          0.000004                       # miss rate for ReadReq accesses
system.cpu.icache.ReadReq_misses                   50                       # number of ReadReq misses
system.cpu.icache.ReadReq_mshr_hits                 4                       # number of ReadReq MSHR hits
system.cpu.icache.ReadReq_mshr_miss_latency      2739000                       # number of ReadReq MSHR miss cycles
system.cpu.icache.ReadReq_mshr_miss_rate     0.000004                       # mshr miss rate for ReadReq accesses
system.cpu.icache.ReadReq_mshr_misses              45                       # number of ReadReq MSHR misses
system.cpu.icache.avg_blocked_cycles::no_mshrs     no_value                       # average number of cycles each access was blocked
system.cpu.icache.avg_blocked_cycles::no_targets     no_value                       # average number of cycles each access was blocked
system.cpu.icache.avg_refs               272658.326087                       # Average number of references to valid blocks.
system.cpu.icache.blocked::no_mshrs                 0                       # number of cycles access was blocked
system.cpu.icache.blocked::no_targets               0                       # number of cycles access was blocked
system.cpu.icache.blocked_cycles::no_mshrs            0                       # number of cycles access was blocked
system.cpu.icache.blocked_cycles::no_targets            0                       # number of cycles access was blocked
system.cpu.icache.cache_copies                      0                       # number of cache copies performed
system.cpu.icache.demand_accesses            12542333                       # number of demand (read+write) accesses
system.cpu.icache.demand_avg_miss_latency        62700                       # average overall miss latency
system.cpu.icache.demand_avg_mshr_miss_latency 60866.666667                       # average overall mshr miss latency
system.cpu.icache.demand_hits                12542283                       # number of demand (read+write) hits
system.cpu.icache.demand_miss_latency         3135000                       # number of demand (read+write) miss cycles
system.cpu.icache.demand_miss_rate           0.000004                       # miss rate for demand accesses
system.cpu.icache.demand_misses                    50                       # number of demand (read+write) misses
system.cpu.icache.demand_mshr_hits                  4                       # number of demand (read+write) MSHR hits
system.cpu.icache.demand_mshr_miss_latency      2739000                       # number of demand (read+write) MSHR miss cycles
system.cpu.icache.demand_mshr_miss_rate      0.000004                       # mshr miss rate for demand accesses
system.cpu.icache.demand_mshr_misses               45                       # number of demand (read+write) MSHR misses
system.cpu.icache.fast_writes                       0                       # number of fast writes performed
system.cpu.icache.mshr_cap_events                   0                       # number of times MSHR cap was activated
system.cpu.icache.no_allocate_misses                0                       # Number of misses that were no-allocate
system.cpu.icache.occ_%::0                   0.078832                       # Average percentage of cache occupancy
system.cpu.icache.occ_blocks::0             40.362188                       # Average occupied blocks per context
system.cpu.icache.overall_accesses           12542333                       # number of overall (read+write) accesses
system.cpu.icache.overall_avg_miss_latency        62700                       # average overall miss latency
system.cpu.icache.overall_avg_mshr_miss_latency 60866.666667                       # average overall mshr miss latency
system.cpu.icache.overall_avg_mshr_uncacheable_latency     no_value                       # average overall mshr uncacheable latency
system.cpu.icache.overall_hits               12542283                       # number of overall hits
system.cpu.icache.overall_miss_latency        3135000                       # number of overall miss cycles
system.cpu.icache.overall_miss_rate          0.000004                       # miss rate for overall accesses
system.cpu.icache.overall_misses                   50                       # number of overall misses
system.cpu.icache.overall_mshr_hits                 4                       # number of overall MSHR hits
system.cpu.icache.overall_mshr_miss_latency      2739000                       # number of overall MSHR miss cycles
system.cpu.icache.overall_mshr_miss_rate     0.000004                       # mshr miss rate for overall accesses
system.cpu.icache.overall_mshr_misses              45                       # number of overall MSHR misses
system.cpu.icache.overall_mshr_uncacheable_latency            0                       # number of overall MSHR uncacheable cycles
system.cpu.icache.overall_mshr_uncacheable_misses            0                       # number of overall MSHR uncacheable misses
system.cpu.icache.prefetch_accuracy          no_value                       # ratio of good prefetches to total prefetches
system.cpu.icache.prefetch_hits                     0                       # number of prefetched blocks that were accessed
system.cpu.icache.replacements                      0                       # number of replacements
system.cpu.icache.sampled_refs                     46                       # Sample count of references to valid blocks.
system.cpu.icache.soft_prefetch_mshr_full            0                       # number of mshr full events for SW prefetching instrutions
system.cpu.icache.tagsinuse                 40.362188                       # Cycle average of tags in use
system.cpu.icache.total_refs                 12542283                       # Total number of references to valid blocks.
system.cpu.icache.warmup_cycle                      0                       # Cycle when the warmup percentage was hit.
system.cpu.icache.writebacks                        0                       # number of writebacks
system.cpu.idle_fraction                            0                       # Percentage of idle cycles
system.cpu.itb.data_accesses                        0                       # DTB accesses
system.cpu.itb.data_acv                             0                       # DTB access violations
system.cpu.itb.data_hits                            0                       # DTB hits
system.cpu.itb.data_misses                          0                       # DTB misses
system.cpu.itb.fetch_accesses                       2                       # ITB accesses
system.cpu.itb.fetch_acv                            0                       # ITB acv
system.cpu.itb.fetch_hits                           2                       # ITB hits
system.cpu.itb.fetch_misses                         0                       # ITB misses
system.cpu.itb.read_accesses                        0                       # DTB read accesses
system.cpu.itb.read_acv                             0                       # DTB read access violations
system.cpu.itb.read_hits                            0                       # DTB read hits
system.cpu.itb.read_misses                          0                       # DTB read misses
system.cpu.itb.write_accesses                       0                       # DTB write accesses
system.cpu.itb.write_acv                            0                       # DTB write access violations
system.cpu.itb.write_hits                           0                       # DTB write hits
system.cpu.itb.write_misses                         0                       # DTB write misses
system.cpu.not_idle_fraction                        1                       # Percentage of non-idle cycles
system.cpu.numCycles                                2                       # number of cpu cycles simulated
system.cpu.num_insts                                2                       # Number of instructions executed
system.cpu.num_refs                                 0                       # Number of memory references
system.cpu.workload.PROG:num_syscalls               0                       # Number of system calls
system.l2.HardPFReq_avg_mshr_miss_latency 34541.892558                       # average HardPFReq mshr miss latency
system.l2.HardPFReq_mshr_miss_latency      2712436655                       # number of HardPFReq MSHR miss cycles
system.l2.HardPFReq_mshr_miss_rate                inf                       # mshr miss rate for HardPFReq accesses
system.l2.HardPFReq_mshr_misses                 78526                       # number of HardPFReq MSHR misses
system.l2.ReadExReq_accesses                    26087                       # number of ReadExReq accesses(hits+misses)
system.l2.ReadExReq_avg_miss_latency            55500                       # average ReadExReq miss latency
system.l2.ReadExReq_avg_mshr_miss_latency        40000                       # average ReadExReq mshr miss latency
system.l2.ReadExReq_hits                        26084                       # number of ReadExReq hits
system.l2.ReadExReq_miss_latency               166500                       # number of ReadExReq miss cycles
system.l2.ReadExReq_miss_rate                0.000115                       # miss rate for ReadExReq accesses
system.l2.ReadExReq_misses                          3                       # number of ReadExReq misses
system.l2.ReadExReq_mshr_miss_latency          120000                       # number of ReadExReq MSHR miss cycles
system.l2.ReadExReq_mshr_miss_rate           0.000115                       # mshr miss rate for ReadExReq accesses
system.l2.ReadExReq_mshr_misses                     3                       # number of ReadExReq MSHR misses
system.l2.ReadReq_accesses                      52257                       # number of ReadReq accesses(hits+misses)
system.l2.ReadReq_avg_miss_latency       58282.258065                       # average ReadReq miss latency
system.l2.ReadReq_avg_mshr_miss_latency  43385.245902                       # average ReadReq mshr miss latency
system.l2.ReadReq_hits                          52195                       # number of ReadReq hits
system.l2.ReadReq_miss_latency                3613500                       # number of ReadReq miss cycles
system.l2.ReadReq_miss_rate                  0.001186                       # miss rate for ReadReq accesses
system.l2.ReadReq_misses                           62                       # number of ReadReq misses
system.l2.ReadReq_mshr_miss_latency           2646500                       # number of ReadReq MSHR miss cycles
system.l2.ReadReq_mshr_miss_rate             0.001167                       # mshr miss rate for ReadReq accesses
system.l2.ReadReq_mshr_misses                      61                       # number of ReadReq MSHR misses
system.l2.UpgradeReq_accesses                   52174                       # number of UpgradeReq accesses(hits+misses)
system.l2.UpgradeReq_avg_miss_latency    60245.984590                       # average UpgradeReq miss latency
system.l2.UpgradeReq_avg_mshr_miss_latency 44528.519952                       # average UpgradeReq mshr miss latency
system.l2.UpgradeReq_miss_latency          3143274000                       # number of UpgradeReq miss cycles
system.l2.UpgradeReq_miss_rate                      1                       # miss rate for UpgradeReq accesses
system.l2.UpgradeReq_misses                     52174                       # number of UpgradeReq misses
system.l2.UpgradeReq_mshr_miss_latency     2323231000                       # number of UpgradeReq MSHR miss cycles
system.l2.UpgradeReq_mshr_miss_rate                 1                       # mshr miss rate for UpgradeReq accesses
system.l2.UpgradeReq_mshr_misses                52174                       # number of UpgradeReq MSHR misses
system.l2.Writeback_accesses                    77243                       # number of Writeback accesses(hits+misses)
system.l2.Writeback_hits                        77243                       # number of Writeback hits
system.l2.avg_blocked_cycles::no_mshrs       no_value                       # average number of cycles each access was blocked
system.l2.avg_blocked_cycles::no_targets     no_value                       # average number of cycles each access was blocked
system.l2.avg_refs                           0.030436                       # Average number of references to valid blocks.
system.l2.blocked::no_mshrs                         0                       # number of cycles access was blocked
system.l2.blocked::no_targets                       0                       # number of cycles access was blocked
system.l2.blocked_cycles::no_mshrs                  0                       # number of cycles access was blocked
system.l2.blocked_cycles::no_targets                0                       # number of cycles access was blocked
system.l2.cache_copies                              0                       # number of cache copies performed
system.l2.demand_accesses                       78344                       # number of demand (read+write) accesses
system.l2.demand_avg_miss_latency        58153.846154                       # average overall miss latency
system.l2.demand_avg_mshr_miss_latency   43226.562500                       # average overall mshr miss latency
system.l2.demand_hits                           78279                       # number of demand (read+write) hits
system.l2.demand_miss_latency                 3780000                       # number of demand (read+write) miss cycles
system.l2.demand_miss_rate                   0.000830                       # miss rate for demand accesses
system.l2.demand_misses                            65                       # number of demand (read+write) misses
system.l2.demand_mshr_hits                          0                       # number of demand (read+write) MSHR hits
system.l2.demand_mshr_miss_latency            2766500                       # number of demand (read+write) MSHR miss cycles
system.l2.demand_mshr_miss_rate              0.000817                       # mshr miss rate for demand accesses
system.l2.demand_mshr_misses                       64                       # number of demand (read+write) MSHR misses
system.l2.fast_writes                               0                       # number of fast writes performed
system.l2.mshr_cap_events                           0                       # number of times MSHR cap was activated
system.l2.no_allocate_misses                        0                       # Number of misses that were no-allocate
system.l2.occ_%::0                           0.004943                       # Average percentage of cache occupancy
system.l2.occ_%::1                           0.451893                       # Average percentage of cache occupancy
system.l2.occ_blocks::0                     80.982991                       # Average occupied blocks per context
system.l2.occ_blocks::1                   7403.810217                       # Average occupied blocks per context
system.l2.overall_accesses                      78344                       # number of overall (read+write) accesses
system.l2.overall_avg_miss_latency       58153.846154                       # average overall miss latency
system.l2.overall_avg_mshr_miss_latency  34548.964945                       # average overall mshr miss latency
system.l2.overall_avg_mshr_uncacheable_latency     no_value                       # average overall mshr uncacheable latency
system.l2.overall_hits                          78279                       # number of overall hits
system.l2.overall_miss_latency                3780000                       # number of overall miss cycles
system.l2.overall_miss_rate                  0.000830                       # miss rate for overall accesses
system.l2.overall_misses                           65                       # number of overall misses
system.l2.overall_mshr_hits                         0                       # number of overall MSHR hits
system.l2.overall_mshr_miss_latency        2715203155                       # number of overall MSHR miss cycles
system.l2.overall_mshr_miss_rate             1.003140                       # mshr miss rate for overall accesses
system.l2.overall_mshr_misses                   78590                       # number of overall MSHR misses
system.l2.overall_mshr_uncacheable_latency            0                       # number of overall MSHR uncacheable cycles
system.l2.overall_mshr_uncacheable_misses            0                       # number of overall MSHR uncacheable misses
system.l2.prefetch_accuracy                  0.664315                       # ratio of good prefetches to total prefetches
system.l2.prefetch_hits                         52166                       # number of prefetched blocks that were accessed
system.l2.prefetcher.num_hwpf_already_in_prefetcher        12800                       # number of hwpf that were already in the prefetch queue
system.l2.prefetcher.num_hwpf_evicted               0                       # number of hwpf removed due to no buffer left
system.l2.prefetcher.num_hwpf_identified        91346                       # number of hwpf identified
system.l2.prefetcher.num_hwpf_issued            78546                       # number of hwpf issued
system.l2.prefetcher.num_hwpf_removed_MSHR_hit            0                       # number of hwpf removed because MSHR allocated
system.l2.prefetcher.num_hwpf_span_page             0                       # number of hwpf spanning a virtual page
system.l2.prefetcher.num_hwpf_squashed_from_miss            0                       # number of hwpf that got squashed due to a miss aborting calculation time
system.l2.replacements                          69290                       # number of replacements
system.l2.sampled_refs                          77573                       # Sample count of references to valid blocks.
system.l2.soft_prefetch_mshr_full                   0                       # number of mshr full events for SW prefetching instrutions
system.l2.tagsinuse                       7484.793208                       # Cycle average of tags in use
system.l2.total_refs                             2361                       # Total number of references to valid blocks.
system.l2.warmup_cycle                              0                       # Cycle when the warmup percentage was hit.
system.l2.writebacks                            69078                       # number of writebacks
system.switch_cpus.dtb.data_accesses          2101668                       # DTB accesses
system.switch_cpus.dtb.data_acv                     0                       # DTB access violations
system.switch_cpus.dtb.data_hits              2101344                       # DTB hits
system.switch_cpus.dtb.data_misses                324                       # DTB misses
system.switch_cpus.dtb.fetch_accesses               0                       # ITB accesses
system.switch_cpus.dtb.fetch_acv                    0                       # ITB acv
system.switch_cpus.dtb.fetch_hits                   0                       # ITB hits
system.switch_cpus.dtb.fetch_misses                 0                       # ITB misses
system.switch_cpus.dtb.read_accesses          1481486                       # DTB read accesses
system.switch_cpus.dtb.read_acv                     0                       # DTB read access violations
system.switch_cpus.dtb.read_hits              1481268                       # DTB read hits
system.switch_cpus.dtb.read_misses                218                       # DTB read misses
system.switch_cpus.dtb.write_accesses          620182                       # DTB write accesses
system.switch_cpus.dtb.write_acv                    0                       # DTB write access violations
system.switch_cpus.dtb.write_hits              620076                       # DTB write hits
system.switch_cpus.dtb.write_misses               106                       # DTB write misses
system.switch_cpus.idle_fraction                    1                       # Percentage of idle cycles
system.switch_cpus.itb.data_accesses                0                       # DTB accesses
system.switch_cpus.itb.data_acv                     0                       # DTB access violations
system.switch_cpus.itb.data_hits                    0                       # DTB hits
system.switch_cpus.itb.data_misses                  0                       # DTB misses
system.switch_cpus.itb.fetch_accesses        10000330                       # ITB accesses
system.switch_cpus.itb.fetch_acv                    0                       # ITB acv
system.switch_cpus.itb.fetch_hits            10000326                       # ITB hits
system.switch_cpus.itb.fetch_misses                 4                       # ITB misses
system.switch_cpus.itb.read_accesses                0                       # DTB read accesses
system.switch_cpus.itb.read_acv                     0                       # DTB read access violations
system.switch_cpus.itb.read_hits                    0                       # DTB read hits
system.switch_cpus.itb.read_misses                  0                       # DTB read misses
system.switch_cpus.itb.write_accesses               0                       # DTB write accesses
system.switch_cpus.itb.write_acv                    0                       # DTB write access violations
system.switch_cpus.itb.write_hits                   0                       # DTB write hits
system.switch_cpus.itb.write_misses                 0                       # DTB write misses
system.switch_cpus.not_idle_fraction                0                       # Percentage of non-idle cycles
system.switch_cpus.numCycles                 28282508                       # number of cpu cycles simulated
system.switch_cpus.num_insts                 10000001                       # Number of instructions executed
system.switch_cpus.num_refs                   2170562                       # Number of memory references
system.switch_cpus_1.BPredUnit.BTBCorrect            0                       # Number of correct BTB predictions (this stat may not work properly.
system.switch_cpus_1.BPredUnit.BTBHits        1227056                       # Number of BTB hits
system.switch_cpus_1.BPredUnit.BTBLookups      2369231                       # Number of BTB lookups
system.switch_cpus_1.BPredUnit.RASInCorrect            2                       # Number of incorrect RAS predictions.
system.switch_cpus_1.BPredUnit.condIncorrect       163304                       # Number of conditional branches incorrect
system.switch_cpus_1.BPredUnit.condPredicted      2054078                       # Number of conditional branches predicted
system.switch_cpus_1.BPredUnit.lookups        2762614                       # Number of BP lookups
system.switch_cpus_1.BPredUnit.usedRAS         240939                       # Number of times the RAS was used to get a target.
system.switch_cpus_1.commit.COM:branches      1390146                       # Number of branches committed
system.switch_cpus_1.commit.COM:bw_lim_events       519861                       # number cycles where commit BW limit reached
system.switch_cpus_1.commit.COM:bw_limited            0                       # number of insts not committed due to BW limits
system.switch_cpus_1.commit.COM:committed_per_cycle::samples      9973956                       # Number of insts commited each cycle
system.switch_cpus_1.commit.COM:committed_per_cycle::mean     1.021977                       # Number of insts commited each cycle
system.switch_cpus_1.commit.COM:committed_per_cycle::stdev     2.107057                       # Number of insts commited each cycle
system.switch_cpus_1.commit.COM:committed_per_cycle::underflows            0      0.00%      0.00% # Number of insts commited each cycle
system.switch_cpus_1.commit.COM:committed_per_cycle::0      6948137     69.66%     69.66% # Number of insts commited each cycle
system.switch_cpus_1.commit.COM:committed_per_cycle::1       964838      9.67%     79.34% # Number of insts commited each cycle
system.switch_cpus_1.commit.COM:committed_per_cycle::2       722631      7.25%     86.58% # Number of insts commited each cycle
system.switch_cpus_1.commit.COM:committed_per_cycle::3       274118      2.75%     89.33% # Number of insts commited each cycle
system.switch_cpus_1.commit.COM:committed_per_cycle::4       226948      2.28%     91.61% # Number of insts commited each cycle
system.switch_cpus_1.commit.COM:committed_per_cycle::5        91621      0.92%     92.52% # Number of insts commited each cycle
system.switch_cpus_1.commit.COM:committed_per_cycle::6       144698      1.45%     93.97% # Number of insts commited each cycle
system.switch_cpus_1.commit.COM:committed_per_cycle::7        81104      0.81%     94.79% # Number of insts commited each cycle
system.switch_cpus_1.commit.COM:committed_per_cycle::8       519861      5.21%    100.00% # Number of insts commited each cycle
system.switch_cpus_1.commit.COM:committed_per_cycle::overflows            0      0.00%    100.00% # Number of insts commited each cycle
system.switch_cpus_1.commit.COM:committed_per_cycle::min_value            0                       # Number of insts commited each cycle
system.switch_cpus_1.commit.COM:committed_per_cycle::max_value            8                       # Number of insts commited each cycle
system.switch_cpus_1.commit.COM:committed_per_cycle::total      9973956                       # Number of insts commited each cycle
system.switch_cpus_1.commit.COM:count        10193155                       # Number of instructions committed
system.switch_cpus_1.commit.COM:loads         1580244                       # Number of loads committed
system.switch_cpus_1.commit.COM:membars             0                       # Number of memory barriers committed
system.switch_cpus_1.commit.COM:refs          2212346                       # Number of memory references committed
system.switch_cpus_1.commit.COM:swp_count            0                       # Number of s/w prefetches committed
system.switch_cpus_1.commit.branchMispredicts       163293                       # The number of times a branch was mispredicted
system.switch_cpus_1.commit.commitCommittedInsts     10193155                       # The number of committed instructions
system.switch_cpus_1.commit.commitSquashedInsts      4326603                       # The number of squashed insts skipped by commit
system.switch_cpus_1.committedInsts          10000003                       # Number of Instructions Simulated
system.switch_cpus_1.committedInsts_total     10000003                       # Number of Instructions Simulated
system.switch_cpus_1.cpi                     1.081773                       # CPI: Cycles Per Instruction
system.switch_cpus_1.cpi_total               1.081773                       # CPI: Total CPI of All Threads
system.switch_cpus_1.decode.DECODE:BlockedCycles      1297604                       # Number of cycles decode is blocked
system.switch_cpus_1.decode.DECODE:BranchMispred           11                       # Number of times decode detected a branch misprediction
system.switch_cpus_1.decode.DECODE:BranchResolved       461291                       # Number of times decode resolved a branch
system.switch_cpus_1.decode.DECODE:DecodedInsts     19166529                       # Number of instructions handled by decode
system.switch_cpus_1.decode.DECODE:IdleCycles      5249433                       # Number of cycles decode is idle
system.switch_cpus_1.decode.DECODE:RunCycles      3408974                       # Number of cycles decode is running
system.switch_cpus_1.decode.DECODE:SquashCycles       809018                       # Number of cycles decode is squashing
system.switch_cpus_1.decode.DECODE:SquashedInsts           46                       # Number of squashed instructions handled by decode
system.switch_cpus_1.decode.DECODE:UnblockCycles        17944                       # Number of cycles decode is unblocking
system.switch_cpus_1.dtb.data_accesses        2862084                       # DTB accesses
system.switch_cpus_1.dtb.data_acv                   0                       # DTB access violations
system.switch_cpus_1.dtb.data_hits            2860503                       # DTB hits
system.switch_cpus_1.dtb.data_misses             1581                       # DTB misses
system.switch_cpus_1.dtb.fetch_accesses             0                       # ITB accesses
system.switch_cpus_1.dtb.fetch_acv                  0                       # ITB acv
system.switch_cpus_1.dtb.fetch_hits                 0                       # ITB hits
system.switch_cpus_1.dtb.fetch_misses               0                       # ITB misses
system.switch_cpus_1.dtb.read_accesses        2207215                       # DTB read accesses
system.switch_cpus_1.dtb.read_acv                   0                       # DTB read access violations
system.switch_cpus_1.dtb.read_hits            2206052                       # DTB read hits
system.switch_cpus_1.dtb.read_misses             1163                       # DTB read misses
system.switch_cpus_1.dtb.write_accesses        654869                       # DTB write accesses
system.switch_cpus_1.dtb.write_acv                  0                       # DTB write access violations
system.switch_cpus_1.dtb.write_hits            654451                       # DTB write hits
system.switch_cpus_1.dtb.write_misses             418                       # DTB write misses
system.switch_cpus_1.fetch.Branches           2762614                       # Number of branches that fetch encountered
system.switch_cpus_1.fetch.CacheLines         2542005                       # Number of cache lines fetched
system.switch_cpus_1.fetch.Cycles             6066166                       # Number of cycles fetch has run and was not squashing or blocked
system.switch_cpus_1.fetch.IcacheSquashes        48311                       # Number of outstanding Icache misses that were squashed
system.switch_cpus_1.fetch.Insts             19617017                       # Number of instructions fetch has processed
system.switch_cpus_1.fetch.SquashCycles        447317                       # Number of cycles fetch has spent squashing
system.switch_cpus_1.fetch.branchRate        0.255378                       # Number of branch fetches per cycle
system.switch_cpus_1.fetch.icacheStallCycles      2542005                       # Number of cycles fetch is stalled on an Icache miss
system.switch_cpus_1.fetch.predictedBranches      1467995                       # Number of branches that fetch has predicted taken
system.switch_cpus_1.fetch.rate              1.813413                       # Number of inst fetches per cycle
system.switch_cpus_1.fetch.rateDist::samples     10782974                       # Number of instructions fetched each cycle (Total)
system.switch_cpus_1.fetch.rateDist::mean     1.819258                       # Number of instructions fetched each cycle (Total)
system.switch_cpus_1.fetch.rateDist::stdev     2.938170                       # Number of instructions fetched each cycle (Total)
system.switch_cpus_1.fetch.rateDist::underflows            0      0.00%      0.00% # Number of instructions fetched each cycle (Total)
system.switch_cpus_1.fetch.rateDist::0        7258821     67.32%     67.32% # Number of instructions fetched each cycle (Total)
system.switch_cpus_1.fetch.rateDist::1         198031      1.84%     69.15% # Number of instructions fetched each cycle (Total)
system.switch_cpus_1.fetch.rateDist::2         183001      1.70%     70.85% # Number of instructions fetched each cycle (Total)
system.switch_cpus_1.fetch.rateDist::3         525473      4.87%     75.72% # Number of instructions fetched each cycle (Total)
system.switch_cpus_1.fetch.rateDist::4         437693      4.06%     79.78% # Number of instructions fetched each cycle (Total)
system.switch_cpus_1.fetch.rateDist::5         246107      2.28%     82.07% # Number of instructions fetched each cycle (Total)
system.switch_cpus_1.fetch.rateDist::6         413855      3.84%     85.90% # Number of instructions fetched each cycle (Total)
system.switch_cpus_1.fetch.rateDist::7         147816      1.37%     87.27% # Number of instructions fetched each cycle (Total)
system.switch_cpus_1.fetch.rateDist::8        1372177     12.73%    100.00% # Number of instructions fetched each cycle (Total)
system.switch_cpus_1.fetch.rateDist::overflows            0      0.00%    100.00% # Number of instructions fetched each cycle (Total)
system.switch_cpus_1.fetch.rateDist::min_value            0                       # Number of instructions fetched each cycle (Total)
system.switch_cpus_1.fetch.rateDist::max_value            8                       # Number of instructions fetched each cycle (Total)
system.switch_cpus_1.fetch.rateDist::total     10782974                       # Number of instructions fetched each cycle (Total)
system.switch_cpus_1.idleCycles                 34759                       # Total number of cycles that the CPU has spent unscheduled due to idling
system.switch_cpus_1.iew.EXEC:branches        1796255                       # Number of branches executed
system.switch_cpus_1.iew.EXEC:nop              264580                       # number of nop insts executed
system.switch_cpus_1.iew.EXEC:rate           1.120805                       # Inst execution rate
system.switch_cpus_1.iew.EXEC:refs            2933074                       # number of memory reference insts executed
system.switch_cpus_1.iew.EXEC:stores           654869                       # Number of stores executed
system.switch_cpus_1.iew.EXEC:swp                   0                       # number of swp insts executed
system.switch_cpus_1.iew.WB:consumers         9260912                       # num instructions consuming a value
system.switch_cpus_1.iew.WB:count            11567987                       # cumulative count of insts written-back
system.switch_cpus_1.iew.WB:fanout           0.681653                       # average fanout of values written-back
system.switch_cpus_1.iew.WB:penalized               0                       # number of instrctions required to write to 'other' IQ
system.switch_cpus_1.iew.WB:penalized_rate            0                       # fraction of instructions written-back that wrote to 'other' IQ
system.switch_cpus_1.iew.WB:producers         6312732                       # num instructions producing a value
system.switch_cpus_1.iew.WB:rate             1.069354                       # insts written-back per cycle
system.switch_cpus_1.iew.WB:sent             11581687                       # cumulative count of insts sent to commit
system.switch_cpus_1.iew.branchMispredicts       183398                       # Number of branch mispredicts detected at execute
system.switch_cpus_1.iew.iewBlockCycles        576356                       # Number of cycles IEW is blocking
system.switch_cpus_1.iew.iewDispLoadInsts      2427655                       # Number of dispatched load instructions
system.switch_cpus_1.iew.iewDispNonSpecInsts            0                       # Number of dispatched non-speculative instructions
system.switch_cpus_1.iew.iewDispSquashedInsts      1422397                       # Number of squashed instructions skipped by dispatch
system.switch_cpus_1.iew.iewDispStoreInsts       750822                       # Number of dispatched store instructions
system.switch_cpus_1.iew.iewDispatchedInsts     14526213                       # Number of instructions dispatched to IQ
system.switch_cpus_1.iew.iewExecLoadInsts      2278205                       # Number of load instructions executed
system.switch_cpus_1.iew.iewExecSquashedInsts       371245                       # Number of squashed instructions skipped in execute
system.switch_cpus_1.iew.iewExecutedInsts     12124573                       # Number of executed instructions
system.switch_cpus_1.iew.iewIQFullEvents       137531                       # Number of times the IQ has become full, causing a stall
system.switch_cpus_1.iew.iewIdleCycles              0                       # Number of cycles IEW is idle
system.switch_cpus_1.iew.iewLSQFullEvents            0                       # Number of times the LSQ has become full, causing a stall
system.switch_cpus_1.iew.iewSquashCycles       809018                       # Number of cycles IEW is squashing
system.switch_cpus_1.iew.iewUnblockCycles       141251                       # Number of cycles IEW is unblocking
system.switch_cpus_1.iew.lsq.thread.0.blockedLoads            0                       # Number of blocked loads due to partial load-store forwarding
system.switch_cpus_1.iew.lsq.thread.0.cacheBlocked       529095                       # Number of times an access to memory failed due to the cache being blocked
system.switch_cpus_1.iew.lsq.thread.0.forwLoads       252106                       # Number of loads that had data forwarded from stores
system.switch_cpus_1.iew.lsq.thread.0.ignoredResponses            6                       # Number of memory responses ignored because the instruction is squashed
system.switch_cpus_1.iew.lsq.thread.0.invAddrLoads            0                       # Number of loads ignored due to an invalid address
system.switch_cpus_1.iew.lsq.thread.0.invAddrSwpfs            0                       # Number of software prefetches ignored due to an invalid address
system.switch_cpus_1.iew.lsq.thread.0.memOrderViolation          123                       # Number of memory ordering violations
system.switch_cpus_1.iew.lsq.thread.0.rescheduledLoads            0                       # Number of loads that were rescheduled
system.switch_cpus_1.iew.lsq.thread.0.squashedLoads       847388                       # Number of loads squashed
system.switch_cpus_1.iew.lsq.thread.0.squashedStores       118716                       # Number of stores squashed
system.switch_cpus_1.iew.memOrderViolationEvents          123                       # Number of memory order violations
system.switch_cpus_1.iew.predictedNotTakenIncorrect        41819                       # Number of branches that were predicted not taken incorrectly
system.switch_cpus_1.iew.predictedTakenIncorrect       141579                       # Number of branches that were predicted taken incorrectly
system.switch_cpus_1.ipc                     0.924408                       # IPC: Instructions Per Cycle
system.switch_cpus_1.ipc_total               0.924408                       # IPC: Total IPC of All Threads
system.switch_cpus_1.iq.ISSUE:FU_type_0::No_OpClass            0      0.00%      0.00% # Type of FU issued
system.switch_cpus_1.iq.ISSUE:FU_type_0::IntAlu      4902312     39.23%     39.23% # Type of FU issued
system.switch_cpus_1.iq.ISSUE:FU_type_0::IntMult        35131      0.28%     39.51% # Type of FU issued
system.switch_cpus_1.iq.ISSUE:FU_type_0::IntDiv            0      0.00%     39.51% # Type of FU issued
system.switch_cpus_1.iq.ISSUE:FU_type_0::FloatAdd      2271994     18.18%     57.69% # Type of FU issued
system.switch_cpus_1.iq.ISSUE:FU_type_0::FloatCmp       258851      2.07%     59.77% # Type of FU issued
system.switch_cpus_1.iq.ISSUE:FU_type_0::FloatCvt       106611      0.85%     60.62% # Type of FU issued
system.switch_cpus_1.iq.ISSUE:FU_type_0::FloatMult      1500061     12.00%     72.62% # Type of FU issued
system.switch_cpus_1.iq.ISSUE:FU_type_0::FloatDiv       353514      2.83%     75.45% # Type of FU issued
system.switch_cpus_1.iq.ISSUE:FU_type_0::FloatSqrt        35118      0.28%     75.73% # Type of FU issued
system.switch_cpus_1.iq.ISSUE:FU_type_0::MemRead      2375438     19.01%     94.74% # Type of FU issued
system.switch_cpus_1.iq.ISSUE:FU_type_0::MemWrite       656791      5.26%    100.00% # Type of FU issued
system.switch_cpus_1.iq.ISSUE:FU_type_0::IprAccess            0      0.00%    100.00% # Type of FU issued
system.switch_cpus_1.iq.ISSUE:FU_type_0::InstPrefetch            0      0.00%    100.00% # Type of FU issued
system.switch_cpus_1.iq.ISSUE:FU_type_0::total     12495821                       # Type of FU issued
system.switch_cpus_1.iq.ISSUE:fu_busy_cnt       483346                       # FU busy when requested
system.switch_cpus_1.iq.ISSUE:fu_busy_rate     0.038681                       # FU busy rate (busy events/executed inst)
system.switch_cpus_1.iq.ISSUE:fu_full::No_OpClass            0      0.00%      0.00% # attempts to use FU when none available
system.switch_cpus_1.iq.ISSUE:fu_full::IntAlu        16033      3.32%      3.32% # attempts to use FU when none available
system.switch_cpus_1.iq.ISSUE:fu_full::IntMult            0      0.00%      3.32% # attempts to use FU when none available
system.switch_cpus_1.iq.ISSUE:fu_full::IntDiv            0      0.00%      3.32% # attempts to use FU when none available
system.switch_cpus_1.iq.ISSUE:fu_full::FloatAdd         4492      0.93%      4.25% # attempts to use FU when none available
system.switch_cpus_1.iq.ISSUE:fu_full::FloatCmp           32      0.01%      4.25% # attempts to use FU when none available
system.switch_cpus_1.iq.ISSUE:fu_full::FloatCvt            0      0.00%      4.25% # attempts to use FU when none available
system.switch_cpus_1.iq.ISSUE:fu_full::FloatMult       268463     55.54%     59.80% # attempts to use FU when none available
system.switch_cpus_1.iq.ISSUE:fu_full::FloatDiv       114784     23.75%     83.54% # attempts to use FU when none available
system.switch_cpus_1.iq.ISSUE:fu_full::FloatSqrt            0      0.00%     83.54% # attempts to use FU when none available
system.switch_cpus_1.iq.ISSUE:fu_full::MemRead        78745     16.29%     99.84% # attempts to use FU when none available
system.switch_cpus_1.iq.ISSUE:fu_full::MemWrite          797      0.16%    100.00% # attempts to use FU when none available
system.switch_cpus_1.iq.ISSUE:fu_full::IprAccess            0      0.00%    100.00% # attempts to use FU when none available
system.switch_cpus_1.iq.ISSUE:fu_full::InstPrefetch            0      0.00%    100.00% # attempts to use FU when none available
system.switch_cpus_1.iq.ISSUE:issued_per_cycle::samples     10782974                       # Number of insts issued each cycle
system.switch_cpus_1.iq.ISSUE:issued_per_cycle::mean     1.158847                       # Number of insts issued each cycle
system.switch_cpus_1.iq.ISSUE:issued_per_cycle::stdev     1.602751                       # Number of insts issued each cycle
system.switch_cpus_1.iq.ISSUE:issued_per_cycle::underflows            0      0.00%      0.00% # Number of insts issued each cycle
system.switch_cpus_1.iq.ISSUE:issued_per_cycle::0      5678259     52.66%     52.66% # Number of insts issued each cycle
system.switch_cpus_1.iq.ISSUE:issued_per_cycle::1      1742415     16.16%     68.82% # Number of insts issued each cycle
system.switch_cpus_1.iq.ISSUE:issued_per_cycle::2      1371713     12.72%     81.54% # Number of insts issued each cycle
system.switch_cpus_1.iq.ISSUE:issued_per_cycle::3       857185      7.95%     89.49% # Number of insts issued each cycle
system.switch_cpus_1.iq.ISSUE:issued_per_cycle::4       589545      5.47%     94.96% # Number of insts issued each cycle
system.switch_cpus_1.iq.ISSUE:issued_per_cycle::5       283962      2.63%     97.59% # Number of insts issued each cycle
system.switch_cpus_1.iq.ISSUE:issued_per_cycle::6       176026      1.63%     99.22% # Number of insts issued each cycle
system.switch_cpus_1.iq.ISSUE:issued_per_cycle::7        66673      0.62%     99.84% # Number of insts issued each cycle
system.switch_cpus_1.iq.ISSUE:issued_per_cycle::8        17196      0.16%    100.00% # Number of insts issued each cycle
system.switch_cpus_1.iq.ISSUE:issued_per_cycle::overflows            0      0.00%    100.00% # Number of insts issued each cycle
system.switch_cpus_1.iq.ISSUE:issued_per_cycle::min_value            0                       # Number of insts issued each cycle
system.switch_cpus_1.iq.ISSUE:issued_per_cycle::max_value            8                       # Number of insts issued each cycle
system.switch_cpus_1.iq.ISSUE:issued_per_cycle::total     10782974                       # Number of insts issued each cycle
system.switch_cpus_1.iq.ISSUE:rate           1.155124                       # Inst issue rate
system.switch_cpus_1.iq.iqInstsAdded         14261633                       # Number of instructions added to the IQ (excludes non-spec)
system.switch_cpus_1.iq.iqInstsIssued        12495821                       # Number of instructions issued
system.switch_cpus_1.iq.iqSquashedInstsExamined      4261454                       # Number of squashed instructions iterated over during squash; mainly for profiling
system.switch_cpus_1.iq.iqSquashedInstsIssued        66807                       # Number of squashed instructions issued
system.switch_cpus_1.iq.iqSquashedOperandsExamined      3804988                       # Number of squashed operands that are examined and possibly removed from graph
system.switch_cpus_1.itb.data_accesses              0                       # DTB accesses
system.switch_cpus_1.itb.data_acv                   0                       # DTB access violations
system.switch_cpus_1.itb.data_hits                  0                       # DTB hits
system.switch_cpus_1.itb.data_misses                0                       # DTB misses
system.switch_cpus_1.itb.fetch_accesses       2542013                       # ITB accesses
system.switch_cpus_1.itb.fetch_acv                  0                       # ITB acv
system.switch_cpus_1.itb.fetch_hits           2542005                       # ITB hits
system.switch_cpus_1.itb.fetch_misses               8                       # ITB misses
system.switch_cpus_1.itb.read_accesses              0                       # DTB read accesses
system.switch_cpus_1.itb.read_acv                   0                       # DTB read access violations
system.switch_cpus_1.itb.read_hits                  0                       # DTB read hits
system.switch_cpus_1.itb.read_misses                0                       # DTB read misses
system.switch_cpus_1.itb.write_accesses             0                       # DTB write accesses
system.switch_cpus_1.itb.write_acv                  0                       # DTB write access violations
system.switch_cpus_1.itb.write_hits                 0                       # DTB write hits
system.switch_cpus_1.itb.write_misses               0                       # DTB write misses
system.switch_cpus_1.memDep0.conflictingLoads       562131                       # Number of conflicting loads.
system.switch_cpus_1.memDep0.conflictingStores       131789                       # Number of conflicting stores.
system.switch_cpus_1.memDep0.insertedLoads      2427655                       # Number of loads inserted to the mem dependence unit.
system.switch_cpus_1.memDep0.insertedStores       750822                       # Number of stores inserted to the mem dependence unit.
system.switch_cpus_1.numCycles               10817733                       # number of cpu cycles simulated
system.switch_cpus_1.rename.RENAME:BlockCycles       989185                       # Number of cycles rename is blocking
system.switch_cpus_1.rename.RENAME:CommittedMaps      8012869                       # Number of HB maps that are committed
system.switch_cpus_1.rename.RENAME:IQFullEvents       142657                       # Number of times rename has blocked due to IQ full
system.switch_cpus_1.rename.RENAME:IdleCycles      5417166                       # Number of cycles rename is idle
system.switch_cpus_1.rename.RENAME:LSQFullEvents       106818                       # Number of times rename has blocked due to LSQ full
system.switch_cpus_1.rename.RENAME:ROBFullEvents          460                       # Number of times rename has blocked due to ROB full
system.switch_cpus_1.rename.RENAME:RenameLookups     28026173                       # Number of register rename lookups that rename has made
system.switch_cpus_1.rename.RENAME:RenamedInsts     18608166                       # Number of instructions processed by rename
system.switch_cpus_1.rename.RENAME:RenamedOperands     14970675                       # Number of destination operands rename has renamed
system.switch_cpus_1.rename.RENAME:RunCycles      3280509                       # Number of cycles rename is running
system.switch_cpus_1.rename.RENAME:SquashCycles       809018                       # Number of cycles rename is squashing
system.switch_cpus_1.rename.RENAME:UnblockCycles       287095                       # Number of cycles rename is unblocking
system.switch_cpus_1.rename.RENAME:UndoneMaps      6957705                       # Number of HB maps that are undone due to squashing
system.switch_cpus_1.rename.RENAME:serializeStallCycles            0                       # count of cycles rename stalled for serializing inst
system.switch_cpus_1.rename.RENAME:serializingInsts            0                       # count of serializing insts renamed
system.switch_cpus_1.rename.RENAME:skidInsts       748978                       # count of insts added to the skid buffer
system.switch_cpus_1.rename.RENAME:tempSerializingInsts            0                       # count of temporary serializing insts renamed
system.switch_cpus_1.timesIdled                 10962                       # Number of times that the entire CPU went into an idle state and unscheduled itself

---------- End Simulation Statistics   ----------
