
---------- Begin Simulation Statistics ----------
host_inst_rate                                 122469                       # Simulator instruction rate (inst/s)
host_mem_usage                                 333784                       # Number of bytes of host memory used
host_seconds                                   163.31                       # Real time elapsed on the host
host_tick_rate                             1489033542                       # Simulator tick rate (ticks/s)
sim_freq                                 1000000000000                       # Frequency of simulated ticks
sim_insts                                    20000003                       # Number of instructions simulated
sim_seconds                                  0.243169                       # Number of seconds simulated
sim_ticks                                243169148000                       # Number of ticks simulated
system.cpu.dcache.ReadReq_accesses            5607831                       # number of ReadReq accesses(hits+misses)
system.cpu.dcache.ReadReq_avg_miss_latency 87595.875380                       # average ReadReq miss latency
system.cpu.dcache.ReadReq_avg_mshr_miss_latency 84290.015442                       # average ReadReq mshr miss latency
system.cpu.dcache.ReadReq_hits                2082682                       # number of ReadReq hits
system.cpu.dcache.ReadReq_miss_latency   308788512500                       # number of ReadReq miss cycles
system.cpu.dcache.ReadReq_miss_rate          0.628612                       # miss rate for ReadReq accesses
system.cpu.dcache.ReadReq_misses              3525149                       # number of ReadReq misses
system.cpu.dcache.ReadReq_mshr_hits              4152                       # number of ReadReq MSHR hits
system.cpu.dcache.ReadReq_mshr_miss_latency 296784891500                       # number of ReadReq MSHR miss cycles
system.cpu.dcache.ReadReq_mshr_miss_rate     0.627871                       # mshr miss rate for ReadReq accesses
system.cpu.dcache.ReadReq_mshr_misses         3520997                       # number of ReadReq MSHR misses
system.cpu.dcache.WriteReq_accesses            293301                       # number of WriteReq accesses(hits+misses)
system.cpu.dcache.WriteReq_avg_miss_latency 78690.910917                       # average WriteReq miss latency
system.cpu.dcache.WriteReq_avg_mshr_miss_latency 79994.687372                       # average WriteReq mshr miss latency
system.cpu.dcache.WriteReq_hits                285533                       # number of WriteReq hits
system.cpu.dcache.WriteReq_miss_latency     611270996                       # number of WriteReq miss cycles
system.cpu.dcache.WriteReq_miss_rate         0.026485                       # miss rate for WriteReq accesses
system.cpu.dcache.WriteReq_misses                7768                       # number of WriteReq misses
system.cpu.dcache.WriteReq_mshr_hits             2874                       # number of WriteReq MSHR hits
system.cpu.dcache.WriteReq_mshr_miss_latency    391494000                       # number of WriteReq MSHR miss cycles
system.cpu.dcache.WriteReq_mshr_miss_rate     0.016686                       # mshr miss rate for WriteReq accesses
system.cpu.dcache.WriteReq_mshr_misses           4894                       # number of WriteReq MSHR misses
system.cpu.dcache.avg_blocked_cycles::no_mshrs         9500                       # average number of cycles each access was blocked
system.cpu.dcache.avg_blocked_cycles::no_targets 68210.574850                       # average number of cycles each access was blocked
system.cpu.dcache.avg_refs                   0.672161                       # Average number of references to valid blocks.
system.cpu.dcache.blocked::no_mshrs                 6                       # number of cycles access was blocked
system.cpu.dcache.blocked::no_targets             501                       # number of cycles access was blocked
system.cpu.dcache.blocked_cycles::no_mshrs        57000                       # number of cycles access was blocked
system.cpu.dcache.blocked_cycles::no_targets     34173498                       # number of cycles access was blocked
system.cpu.dcache.cache_copies                      0                       # number of cache copies performed
system.cpu.dcache.demand_accesses             5901132                       # number of demand (read+write) accesses
system.cpu.dcache.demand_avg_miss_latency 87576.295593                       # average overall miss latency
system.cpu.dcache.demand_avg_mshr_miss_latency 84284.053449                       # average overall mshr miss latency
system.cpu.dcache.demand_hits                 2368215                       # number of demand (read+write) hits
system.cpu.dcache.demand_miss_latency    309399783496                       # number of demand (read+write) miss cycles
system.cpu.dcache.demand_miss_rate           0.598685                       # miss rate for demand accesses
system.cpu.dcache.demand_misses               3532917                       # number of demand (read+write) misses
system.cpu.dcache.demand_mshr_hits               7026                       # number of demand (read+write) MSHR hits
system.cpu.dcache.demand_mshr_miss_latency 297176385500                       # number of demand (read+write) MSHR miss cycles
system.cpu.dcache.demand_mshr_miss_rate      0.597494                       # mshr miss rate for demand accesses
system.cpu.dcache.demand_mshr_misses          3525891                       # number of demand (read+write) MSHR misses
system.cpu.dcache.fast_writes                       0                       # number of fast writes performed
system.cpu.dcache.mshr_cap_events                   0                       # number of times MSHR cap was activated
system.cpu.dcache.no_allocate_misses                0                       # Number of misses that were no-allocate
system.cpu.dcache.occ_%::0                   0.612273                       # Average percentage of cache occupancy
system.cpu.dcache.occ_blocks::0            626.967964                       # Average occupied blocks per context
system.cpu.dcache.overall_accesses            5901132                       # number of overall (read+write) accesses
system.cpu.dcache.overall_avg_miss_latency 87576.295593                       # average overall miss latency
system.cpu.dcache.overall_avg_mshr_miss_latency 84284.053449                       # average overall mshr miss latency
system.cpu.dcache.overall_avg_mshr_uncacheable_latency     no_value                       # average overall mshr uncacheable latency
system.cpu.dcache.overall_hits                2368215                       # number of overall hits
system.cpu.dcache.overall_miss_latency   309399783496                       # number of overall miss cycles
system.cpu.dcache.overall_miss_rate          0.598685                       # miss rate for overall accesses
system.cpu.dcache.overall_misses              3532917                       # number of overall misses
system.cpu.dcache.overall_mshr_hits              7026                       # number of overall MSHR hits
system.cpu.dcache.overall_mshr_miss_latency 297176385500                       # number of overall MSHR miss cycles
system.cpu.dcache.overall_mshr_miss_rate     0.597494                       # mshr miss rate for overall accesses
system.cpu.dcache.overall_mshr_misses         3525891                       # number of overall MSHR misses
system.cpu.dcache.overall_mshr_uncacheable_latency            0                       # number of overall MSHR uncacheable cycles
system.cpu.dcache.overall_mshr_uncacheable_misses            0                       # number of overall MSHR uncacheable misses
system.cpu.dcache.prefetch_accuracy          no_value                       # ratio of good prefetches to total prefetches
system.cpu.dcache.prefetch_hits                     0                       # number of prefetched blocks that were accessed
system.cpu.dcache.replacements                3524193                       # number of replacements
system.cpu.dcache.sampled_refs                3525044                       # Sample count of references to valid blocks.
system.cpu.dcache.soft_prefetch_mshr_full            0                       # number of mshr full events for SW prefetching instrutions
system.cpu.dcache.tagsinuse                626.967964                       # Cycle average of tags in use
system.cpu.dcache.total_refs                  2369396                       # Total number of references to valid blocks.
system.cpu.dcache.warmup_cycle                      0                       # Cycle when the warmup percentage was hit.
system.cpu.dcache.writebacks                     4505                       # number of writebacks
system.cpu.dtb.data_accesses                        0                       # DTB accesses
system.cpu.dtb.data_acv                             0                       # DTB access violations
system.cpu.dtb.data_hits                            0                       # DTB hits
system.cpu.dtb.data_misses                          0                       # DTB misses
system.cpu.dtb.fetch_accesses                       0                       # ITB accesses
system.cpu.dtb.fetch_acv                            0                       # ITB acv
system.cpu.dtb.fetch_hits                           0                       # ITB hits
system.cpu.dtb.fetch_misses                         0                       # ITB misses
system.cpu.dtb.read_accesses                        0                       # DTB read accesses
system.cpu.dtb.read_acv                             0                       # DTB read access violations
system.cpu.dtb.read_hits                            0                       # DTB read hits
system.cpu.dtb.read_misses                          0                       # DTB read misses
system.cpu.dtb.write_accesses                       0                       # DTB write accesses
system.cpu.dtb.write_acv                            0                       # DTB write access violations
system.cpu.dtb.write_hits                           0                       # DTB write hits
system.cpu.dtb.write_misses                         0                       # DTB write misses
system.cpu.icache.ReadReq_accesses           13504200                       # number of ReadReq accesses(hits+misses)
system.cpu.icache.ReadReq_avg_miss_latency 33134.820300                       # average ReadReq miss latency
system.cpu.icache.ReadReq_avg_mshr_miss_latency 29341.656988                       # average ReadReq mshr miss latency
system.cpu.icache.ReadReq_hits               13498663                       # number of ReadReq hits
system.cpu.icache.ReadReq_miss_latency      183467500                       # number of ReadReq miss cycles
system.cpu.icache.ReadReq_miss_rate          0.000410                       # miss rate for ReadReq accesses
system.cpu.icache.ReadReq_misses                 5537                       # number of ReadReq misses
system.cpu.icache.ReadReq_mshr_hits               370                       # number of ReadReq MSHR hits
system.cpu.icache.ReadReq_mshr_miss_latency    151579000                       # number of ReadReq MSHR miss cycles
system.cpu.icache.ReadReq_mshr_miss_rate     0.000383                       # mshr miss rate for ReadReq accesses
system.cpu.icache.ReadReq_mshr_misses            5166                       # number of ReadReq MSHR misses
system.cpu.icache.avg_blocked_cycles::no_mshrs     no_value                       # average number of cycles each access was blocked
system.cpu.icache.avg_blocked_cycles::no_targets     no_value                       # average number of cycles each access was blocked
system.cpu.icache.avg_refs                2612.475905                       # Average number of references to valid blocks.
system.cpu.icache.blocked::no_mshrs                 0                       # number of cycles access was blocked
system.cpu.icache.blocked::no_targets               0                       # number of cycles access was blocked
system.cpu.icache.blocked_cycles::no_mshrs            0                       # number of cycles access was blocked
system.cpu.icache.blocked_cycles::no_targets            0                       # number of cycles access was blocked
system.cpu.icache.cache_copies                      0                       # number of cache copies performed
system.cpu.icache.demand_accesses            13504200                       # number of demand (read+write) accesses
system.cpu.icache.demand_avg_miss_latency 33134.820300                       # average overall miss latency
system.cpu.icache.demand_avg_mshr_miss_latency 29341.656988                       # average overall mshr miss latency
system.cpu.icache.demand_hits                13498663                       # number of demand (read+write) hits
system.cpu.icache.demand_miss_latency       183467500                       # number of demand (read+write) miss cycles
system.cpu.icache.demand_miss_rate           0.000410                       # miss rate for demand accesses
system.cpu.icache.demand_misses                  5537                       # number of demand (read+write) misses
system.cpu.icache.demand_mshr_hits                370                       # number of demand (read+write) MSHR hits
system.cpu.icache.demand_mshr_miss_latency    151579000                       # number of demand (read+write) MSHR miss cycles
system.cpu.icache.demand_mshr_miss_rate      0.000383                       # mshr miss rate for demand accesses
system.cpu.icache.demand_mshr_misses             5166                       # number of demand (read+write) MSHR misses
system.cpu.icache.fast_writes                       0                       # number of fast writes performed
system.cpu.icache.mshr_cap_events                   0                       # number of times MSHR cap was activated
system.cpu.icache.no_allocate_misses                0                       # Number of misses that were no-allocate
system.cpu.icache.occ_%::0                   0.365680                       # Average percentage of cache occupancy
system.cpu.icache.occ_blocks::0            187.228122                       # Average occupied blocks per context
system.cpu.icache.overall_accesses           13504200                       # number of overall (read+write) accesses
system.cpu.icache.overall_avg_miss_latency 33134.820300                       # average overall miss latency
system.cpu.icache.overall_avg_mshr_miss_latency 29341.656988                       # average overall mshr miss latency
system.cpu.icache.overall_avg_mshr_uncacheable_latency     no_value                       # average overall mshr uncacheable latency
system.cpu.icache.overall_hits               13498663                       # number of overall hits
system.cpu.icache.overall_miss_latency      183467500                       # number of overall miss cycles
system.cpu.icache.overall_miss_rate          0.000410                       # miss rate for overall accesses
system.cpu.icache.overall_misses                 5537                       # number of overall misses
system.cpu.icache.overall_mshr_hits               370                       # number of overall MSHR hits
system.cpu.icache.overall_mshr_miss_latency    151579000                       # number of overall MSHR miss cycles
system.cpu.icache.overall_mshr_miss_rate     0.000383                       # mshr miss rate for overall accesses
system.cpu.icache.overall_mshr_misses            5166                       # number of overall MSHR misses
system.cpu.icache.overall_mshr_uncacheable_latency            0                       # number of overall MSHR uncacheable cycles
system.cpu.icache.overall_mshr_uncacheable_misses            0                       # number of overall MSHR uncacheable misses
system.cpu.icache.prefetch_accuracy          no_value                       # ratio of good prefetches to total prefetches
system.cpu.icache.prefetch_hits                     0                       # number of prefetched blocks that were accessed
system.cpu.icache.replacements                   4957                       # number of replacements
system.cpu.icache.sampled_refs                   5167                       # Sample count of references to valid blocks.
system.cpu.icache.soft_prefetch_mshr_full            0                       # number of mshr full events for SW prefetching instrutions
system.cpu.icache.tagsinuse                187.228122                       # Cycle average of tags in use
system.cpu.icache.total_refs                 13498663                       # Total number of references to valid blocks.
system.cpu.icache.warmup_cycle                      0                       # Cycle when the warmup percentage was hit.
system.cpu.icache.writebacks                        0                       # number of writebacks
system.cpu.idle_fraction                            0                       # Percentage of idle cycles
system.cpu.itb.data_accesses                        0                       # DTB accesses
system.cpu.itb.data_acv                             0                       # DTB access violations
system.cpu.itb.data_hits                            0                       # DTB hits
system.cpu.itb.data_misses                          0                       # DTB misses
system.cpu.itb.fetch_accesses                       2                       # ITB accesses
system.cpu.itb.fetch_acv                            0                       # ITB acv
system.cpu.itb.fetch_hits                           2                       # ITB hits
system.cpu.itb.fetch_misses                         0                       # ITB misses
system.cpu.itb.read_accesses                        0                       # DTB read accesses
system.cpu.itb.read_acv                             0                       # DTB read access violations
system.cpu.itb.read_hits                            0                       # DTB read hits
system.cpu.itb.read_misses                          0                       # DTB read misses
system.cpu.itb.write_accesses                       0                       # DTB write accesses
system.cpu.itb.write_acv                            0                       # DTB write access violations
system.cpu.itb.write_hits                           0                       # DTB write hits
system.cpu.itb.write_misses                         0                       # DTB write misses
system.cpu.not_idle_fraction                        1                       # Percentage of non-idle cycles
system.cpu.numCycles                                2                       # number of cpu cycles simulated
system.cpu.num_insts                                2                       # Number of instructions executed
system.cpu.num_refs                                 0                       # Number of memory references
system.cpu.workload.PROG:num_syscalls               3                       # Number of system calls
system.l2.HardPFReq_avg_mshr_miss_latency 42691.597207                       # average HardPFReq mshr miss latency
system.l2.HardPFReq_mshr_miss_latency    150872317989                       # number of HardPFReq MSHR miss cycles
system.l2.HardPFReq_mshr_miss_rate                inf                       # mshr miss rate for HardPFReq accesses
system.l2.HardPFReq_mshr_misses               3534005                       # number of HardPFReq MSHR misses
system.l2.ReadExReq_accesses                     4048                       # number of ReadExReq accesses(hits+misses)
system.l2.ReadExReq_avg_miss_latency     78477.994132                       # average ReadExReq miss latency
system.l2.ReadExReq_avg_mshr_miss_latency 63243.771765                       # average ReadExReq mshr miss latency
system.l2.ReadExReq_hits                          299                       # number of ReadExReq hits
system.l2.ReadExReq_miss_latency            294214000                       # number of ReadExReq miss cycles
system.l2.ReadExReq_miss_rate                0.926136                       # miss rate for ReadExReq accesses
system.l2.ReadExReq_misses                       3749                       # number of ReadExReq misses
system.l2.ReadExReq_mshr_hits                      16                       # number of ReadExReq MSHR hits
system.l2.ReadExReq_mshr_miss_latency       236089000                       # number of ReadExReq MSHR miss cycles
system.l2.ReadExReq_mshr_miss_rate           0.922184                       # mshr miss rate for ReadExReq accesses
system.l2.ReadExReq_mshr_misses                  3733                       # number of ReadExReq MSHR misses
system.l2.ReadReq_accesses                    3526164                       # number of ReadReq accesses(hits+misses)
system.l2.ReadReq_avg_miss_latency       82979.542503                       # average ReadReq miss latency
system.l2.ReadReq_avg_mshr_miss_latency  67988.137106                       # average ReadReq mshr miss latency
system.l2.ReadReq_hits                           4350                       # number of ReadReq hits
system.l2.ReadReq_miss_latency           292238514500                       # number of ReadReq miss cycles
system.l2.ReadReq_miss_rate                  0.998766                       # miss rate for ReadReq accesses
system.l2.ReadReq_misses                      3521814                       # number of ReadReq misses
system.l2.ReadReq_mshr_hits                       834                       # number of ReadReq MSHR hits
system.l2.ReadReq_mshr_miss_latency      239384803000                       # number of ReadReq MSHR miss cycles
system.l2.ReadReq_mshr_miss_rate             0.998530                       # mshr miss rate for ReadReq accesses
system.l2.ReadReq_mshr_misses                 3520979                       # number of ReadReq MSHR misses
system.l2.UpgradeReq_accesses                     913                       # number of UpgradeReq accesses(hits+misses)
system.l2.UpgradeReq_avg_miss_latency    91347.207010                       # average UpgradeReq miss latency
system.l2.UpgradeReq_avg_mshr_miss_latency 76264.512596                       # average UpgradeReq mshr miss latency
system.l2.UpgradeReq_miss_latency            83400000                       # number of UpgradeReq miss cycles
system.l2.UpgradeReq_miss_rate                      1                       # miss rate for UpgradeReq accesses
system.l2.UpgradeReq_misses                       913                       # number of UpgradeReq misses
system.l2.UpgradeReq_mshr_miss_latency       69629500                       # number of UpgradeReq MSHR miss cycles
system.l2.UpgradeReq_mshr_miss_rate                 1                       # mshr miss rate for UpgradeReq accesses
system.l2.UpgradeReq_mshr_misses                  913                       # number of UpgradeReq MSHR misses
system.l2.Writeback_accesses                     4505                       # number of Writeback accesses(hits+misses)
system.l2.Writeback_hits                         4505                       # number of Writeback hits
system.l2.avg_blocked_cycles::no_mshrs       no_value                       # average number of cycles each access was blocked
system.l2.avg_blocked_cycles::no_targets     no_value                       # average number of cycles each access was blocked
system.l2.avg_refs                           0.000899                       # Average number of references to valid blocks.
system.l2.blocked::no_mshrs                         0                       # number of cycles access was blocked
system.l2.blocked::no_targets                       0                       # number of cycles access was blocked
system.l2.blocked_cycles::no_mshrs                  0                       # number of cycles access was blocked
system.l2.blocked_cycles::no_targets                0                       # number of cycles access was blocked
system.l2.cache_copies                              0                       # number of cache copies performed
system.l2.demand_accesses                     3530212                       # number of demand (read+write) accesses
system.l2.demand_avg_miss_latency        82974.755663                       # average overall miss latency
system.l2.demand_avg_mshr_miss_latency   67983.112379                       # average overall mshr miss latency
system.l2.demand_hits                            4649                       # number of demand (read+write) hits
system.l2.demand_miss_latency            292532728500                       # number of demand (read+write) miss cycles
system.l2.demand_miss_rate                   0.998683                       # miss rate for demand accesses
system.l2.demand_misses                       3525563                       # number of demand (read+write) misses
system.l2.demand_mshr_hits                        850                       # number of demand (read+write) MSHR hits
system.l2.demand_mshr_miss_latency       239620892000                       # number of demand (read+write) MSHR miss cycles
system.l2.demand_mshr_miss_rate              0.998442                       # mshr miss rate for demand accesses
system.l2.demand_mshr_misses                  3524712                       # number of demand (read+write) MSHR misses
system.l2.fast_writes                               0                       # number of fast writes performed
system.l2.mshr_cap_events                           0                       # number of times MSHR cap was activated
system.l2.no_allocate_misses                        0                       # Number of misses that were no-allocate
system.l2.occ_%::0                           0.519453                       # Average percentage of cache occupancy
system.l2.occ_%::1                           0.000369                       # Average percentage of cache occupancy
system.l2.occ_blocks::0                   8510.710163                       # Average occupied blocks per context
system.l2.occ_blocks::1                      6.052584                       # Average occupied blocks per context
system.l2.overall_accesses                    3530212                       # number of overall (read+write) accesses
system.l2.overall_avg_miss_latency       82974.755663                       # average overall miss latency
system.l2.overall_avg_mshr_miss_latency  55320.706297                       # average overall mshr miss latency
system.l2.overall_avg_mshr_uncacheable_latency     no_value                       # average overall mshr uncacheable latency
system.l2.overall_hits                           4649                       # number of overall hits
system.l2.overall_miss_latency           292532728500                       # number of overall miss cycles
system.l2.overall_miss_rate                  0.998683                       # miss rate for overall accesses
system.l2.overall_misses                      3525563                       # number of overall misses
system.l2.overall_mshr_hits                       850                       # number of overall MSHR hits
system.l2.overall_mshr_miss_latency      390493209989                       # number of overall MSHR miss cycles
system.l2.overall_mshr_miss_rate             1.999516                       # mshr miss rate for overall accesses
system.l2.overall_mshr_misses                 7058717                       # number of overall MSHR misses
system.l2.overall_mshr_uncacheable_latency            0                       # number of overall MSHR uncacheable cycles
system.l2.overall_mshr_uncacheable_misses            0                       # number of overall MSHR uncacheable misses
system.l2.prefetch_accuracy                  0.000679                       # ratio of good prefetches to total prefetches
system.l2.prefetch_hits                          2401                       # number of prefetched blocks that were accessed
system.l2.prefetcher.num_hwpf_already_in_prefetcher      1760559                       # number of hwpf that were already in the prefetch queue
system.l2.prefetcher.num_hwpf_evicted               0                       # number of hwpf removed due to no buffer left
system.l2.prefetcher.num_hwpf_identified      7054536                       # number of hwpf identified
system.l2.prefetcher.num_hwpf_issued          3535321                       # number of hwpf issued
system.l2.prefetcher.num_hwpf_removed_MSHR_hit      1758654                       # number of hwpf removed because MSHR allocated
system.l2.prefetcher.num_hwpf_span_page             0                       # number of hwpf spanning a virtual page
system.l2.prefetcher.num_hwpf_squashed_from_miss            0                       # number of hwpf that got squashed due to a miss aborting calculation time
system.l2.replacements                        7048620                       # number of replacements
system.l2.sampled_refs                        7057267                       # Sample count of references to valid blocks.
system.l2.soft_prefetch_mshr_full                   0                       # number of mshr full events for SW prefetching instrutions
system.l2.tagsinuse                       8516.762747                       # Cycle average of tags in use
system.l2.total_refs                             6347                       # Total number of references to valid blocks.
system.l2.warmup_cycle                              0                       # Cycle when the warmup percentage was hit.
system.l2.writebacks                             4486                       # number of writebacks
system.switch_cpus.dtb.data_accesses          2832022                       # DTB accesses
system.switch_cpus.dtb.data_acv                     0                       # DTB access violations
system.switch_cpus.dtb.data_hits              2558233                       # DTB hits
system.switch_cpus.dtb.data_misses             273789                       # DTB misses
system.switch_cpus.dtb.fetch_accesses               0                       # ITB accesses
system.switch_cpus.dtb.fetch_acv                    0                       # ITB acv
system.switch_cpus.dtb.fetch_hits                   0                       # ITB hits
system.switch_cpus.dtb.fetch_misses                 0                       # ITB misses
system.switch_cpus.dtb.read_accesses          2682476                       # DTB read accesses
system.switch_cpus.dtb.read_acv                     0                       # DTB read access violations
system.switch_cpus.dtb.read_hits              2409028                       # DTB read hits
system.switch_cpus.dtb.read_misses             273448                       # DTB read misses
system.switch_cpus.dtb.write_accesses          149546                       # DTB write accesses
system.switch_cpus.dtb.write_acv                    0                       # DTB write access violations
system.switch_cpus.dtb.write_hits              149205                       # DTB write hits
system.switch_cpus.dtb.write_misses               341                       # DTB write misses
system.switch_cpus.idle_fraction                    1                       # Percentage of idle cycles
system.switch_cpus.itb.data_accesses                0                       # DTB accesses
system.switch_cpus.itb.data_acv                     0                       # DTB access violations
system.switch_cpus.itb.data_hits                    0                       # DTB hits
system.switch_cpus.itb.data_misses                  0                       # DTB misses
system.switch_cpus.itb.fetch_accesses        10273803                       # ITB accesses
system.switch_cpus.itb.fetch_acv                    0                       # ITB acv
system.switch_cpus.itb.fetch_hits            10273790                       # ITB hits
system.switch_cpus.itb.fetch_misses                13                       # ITB misses
system.switch_cpus.itb.read_accesses                0                       # DTB read accesses
system.switch_cpus.itb.read_acv                     0                       # DTB read access violations
system.switch_cpus.itb.read_hits                    0                       # DTB read hits
system.switch_cpus.itb.read_misses                  0                       # DTB read misses
system.switch_cpus.itb.write_accesses               0                       # DTB write accesses
system.switch_cpus.itb.write_acv                    0                       # DTB write access violations
system.switch_cpus.itb.write_hits                   0                       # DTB write hits
system.switch_cpus.itb.write_misses                 0                       # DTB write misses
system.switch_cpus.not_idle_fraction                0                       # Percentage of non-idle cycles
system.switch_cpus.numCycles                264086868                       # number of cpu cycles simulated
system.switch_cpus.num_insts                 10000001                       # Number of instructions executed
system.switch_cpus.num_refs                   2837031                       # Number of memory references
system.switch_cpus_1.BPredUnit.BTBCorrect            0                       # Number of correct BTB predictions (this stat may not work properly.
system.switch_cpus_1.BPredUnit.BTBHits        4306506                       # Number of BTB hits
system.switch_cpus_1.BPredUnit.BTBLookups      4496304                       # Number of BTB lookups
system.switch_cpus_1.BPredUnit.RASInCorrect           30                       # Number of incorrect RAS predictions.
system.switch_cpus_1.BPredUnit.condIncorrect        19872                       # Number of conditional branches incorrect
system.switch_cpus_1.BPredUnit.condPredicted      5238312                       # Number of conditional branches predicted
system.switch_cpus_1.BPredUnit.lookups        5381960                       # Number of BP lookups
system.switch_cpus_1.BPredUnit.usedRAS          53459                       # Number of times the RAS was used to get a target.
system.switch_cpus_1.commit.COM:branches      1639812                       # Number of branches committed
system.switch_cpus_1.commit.COM:bw_lim_events        50523                       # number cycles where commit BW limit reached
system.switch_cpus_1.commit.COM:bw_limited            0                       # number of insts not committed due to BW limits
system.switch_cpus_1.commit.COM:committed_per_cycle::samples     51548696                       # Number of insts commited each cycle
system.switch_cpus_1.commit.COM:committed_per_cycle::mean     0.200078                       # Number of insts commited each cycle
system.switch_cpus_1.commit.COM:committed_per_cycle::stdev     0.638319                       # Number of insts commited each cycle
system.switch_cpus_1.commit.COM:committed_per_cycle::underflows            0      0.00%      0.00% # Number of insts commited each cycle
system.switch_cpus_1.commit.COM:committed_per_cycle::0     44830133     86.97%     86.97% # Number of insts commited each cycle
system.switch_cpus_1.commit.COM:committed_per_cycle::1      4285951      8.31%     95.28% # Number of insts commited each cycle
system.switch_cpus_1.commit.COM:committed_per_cycle::2      2006865      3.89%     99.17% # Number of insts commited each cycle
system.switch_cpus_1.commit.COM:committed_per_cycle::3       137221      0.27%     99.44% # Number of insts commited each cycle
system.switch_cpus_1.commit.COM:committed_per_cycle::4        91049      0.18%     99.62% # Number of insts commited each cycle
system.switch_cpus_1.commit.COM:committed_per_cycle::5        79113      0.15%     99.77% # Number of insts commited each cycle
system.switch_cpus_1.commit.COM:committed_per_cycle::6        36428      0.07%     99.84% # Number of insts commited each cycle
system.switch_cpus_1.commit.COM:committed_per_cycle::7        31413      0.06%     99.90% # Number of insts commited each cycle
system.switch_cpus_1.commit.COM:committed_per_cycle::8        50523      0.10%    100.00% # Number of insts commited each cycle
system.switch_cpus_1.commit.COM:committed_per_cycle::overflows            0      0.00%    100.00% # Number of insts commited each cycle
system.switch_cpus_1.commit.COM:committed_per_cycle::min_value            0                       # Number of insts commited each cycle
system.switch_cpus_1.commit.COM:committed_per_cycle::max_value            8                       # Number of insts commited each cycle
system.switch_cpus_1.commit.COM:committed_per_cycle::total     51548696                       # Number of insts commited each cycle
system.switch_cpus_1.commit.COM:count        10313748                       # Number of instructions committed
system.switch_cpus_1.commit.COM:loads         2510912                       # Number of loads committed
system.switch_cpus_1.commit.COM:membars             0                       # Number of memory barriers committed
system.switch_cpus_1.commit.COM:refs          2655008                       # Number of memory references committed
system.switch_cpus_1.commit.COM:swp_count            0                       # Number of s/w prefetches committed
system.switch_cpus_1.commit.branchMispredicts        19531                       # The number of times a branch was mispredicted
system.switch_cpus_1.commit.commitCommittedInsts     10313748                       # The number of committed instructions
system.switch_cpus_1.commit.commitNonSpecStalls            1                       # The number of times commit has been forced to stall to communicate backwards
system.switch_cpus_1.commit.commitSquashedInsts     21818294                       # The number of squashed insts skipped by commit
system.switch_cpus_1.committedInsts          10000000                       # Number of Instructions Simulated
system.switch_cpus_1.committedInsts_total     10000000                       # Number of Instructions Simulated
system.switch_cpus_1.cpi                    22.225143                       # CPI: Cycles Per Instruction
system.switch_cpus_1.cpi_total              22.225143                       # CPI: Total CPI of All Threads
system.switch_cpus_1.decode.DECODE:BlockedCycles     36798381                       # Number of cycles decode is blocked
system.switch_cpus_1.decode.DECODE:BranchMispred          347                       # Number of times decode detected a branch misprediction
system.switch_cpus_1.decode.DECODE:BranchResolved        87836                       # Number of times decode resolved a branch
system.switch_cpus_1.decode.DECODE:DecodedInsts     33902334                       # Number of instructions handled by decode
system.switch_cpus_1.decode.DECODE:IdleCycles      7658067                       # Number of cycles decode is idle
system.switch_cpus_1.decode.DECODE:RunCycles      6418166                       # Number of cycles decode is running
system.switch_cpus_1.decode.DECODE:SquashCycles      2932638                       # Number of cycles decode is squashing
system.switch_cpus_1.decode.DECODE:SquashedInsts         1443                       # Number of squashed instructions handled by decode
system.switch_cpus_1.decode.DECODE:UnblockCycles       674081                       # Number of cycles decode is unblocking
system.switch_cpus_1.dtb.data_accesses        3993502                       # DTB accesses
system.switch_cpus_1.dtb.data_acv                   0                       # DTB access violations
system.switch_cpus_1.dtb.data_hits            3402210                       # DTB hits
system.switch_cpus_1.dtb.data_misses           591292                       # DTB misses
system.switch_cpus_1.dtb.fetch_accesses             0                       # ITB accesses
system.switch_cpus_1.dtb.fetch_acv                  0                       # ITB acv
system.switch_cpus_1.dtb.fetch_hits                 0                       # ITB hits
system.switch_cpus_1.dtb.fetch_misses               0                       # ITB misses
system.switch_cpus_1.dtb.read_accesses        3825999                       # DTB read accesses
system.switch_cpus_1.dtb.read_acv                   0                       # DTB read access violations
system.switch_cpus_1.dtb.read_hits            3235370                       # DTB read hits
system.switch_cpus_1.dtb.read_misses           590629                       # DTB read misses
system.switch_cpus_1.dtb.write_accesses        167503                       # DTB write accesses
system.switch_cpus_1.dtb.write_acv                  0                       # DTB write access violations
system.switch_cpus_1.dtb.write_hits            166840                       # DTB write hits
system.switch_cpus_1.dtb.write_misses             663                       # DTB write misses
system.switch_cpus_1.fetch.Branches           5381960                       # Number of branches that fetch encountered
system.switch_cpus_1.fetch.CacheLines         3230408                       # Number of cache lines fetched
system.switch_cpus_1.fetch.Cycles            10612140                       # Number of cycles fetch has run and was not squashing or blocked
system.switch_cpus_1.fetch.IcacheSquashes         4511                       # Number of outstanding Icache misses that were squashed
system.switch_cpus_1.fetch.Insts             35307696                       # Number of instructions fetch has processed
system.switch_cpus_1.fetch.SquashCycles        314828                       # Number of cycles fetch has spent squashing
system.switch_cpus_1.fetch.branchRate        0.024216                       # Number of branch fetches per cycle
system.switch_cpus_1.fetch.icacheStallCycles      3230408                       # Number of cycles fetch is stalled on an Icache miss
system.switch_cpus_1.fetch.predictedBranches      4359965                       # Number of branches that fetch has predicted taken
system.switch_cpus_1.fetch.rate              0.158864                       # Number of inst fetches per cycle
system.switch_cpus_1.fetch.rateDist::samples     54481334                       # Number of instructions fetched each cycle (Total)
system.switch_cpus_1.fetch.rateDist::mean     0.648070                       # Number of instructions fetched each cycle (Total)
system.switch_cpus_1.fetch.rateDist::stdev     1.842072                       # Number of instructions fetched each cycle (Total)
system.switch_cpus_1.fetch.rateDist::underflows            0      0.00%      0.00% # Number of instructions fetched each cycle (Total)
system.switch_cpus_1.fetch.rateDist::0       47099672     86.45%     86.45% # Number of instructions fetched each cycle (Total)
system.switch_cpus_1.fetch.rateDist::1         936388      1.72%     88.17% # Number of instructions fetched each cycle (Total)
system.switch_cpus_1.fetch.rateDist::2          74252      0.14%     88.31% # Number of instructions fetched each cycle (Total)
system.switch_cpus_1.fetch.rateDist::3          63052      0.12%     88.42% # Number of instructions fetched each cycle (Total)
system.switch_cpus_1.fetch.rateDist::4        4015895      7.37%     95.79% # Number of instructions fetched each cycle (Total)
system.switch_cpus_1.fetch.rateDist::5          55978      0.10%     95.90% # Number of instructions fetched each cycle (Total)
system.switch_cpus_1.fetch.rateDist::6          81789      0.15%     96.05% # Number of instructions fetched each cycle (Total)
system.switch_cpus_1.fetch.rateDist::7          35020      0.06%     96.11% # Number of instructions fetched each cycle (Total)
system.switch_cpus_1.fetch.rateDist::8        2119288      3.89%    100.00% # Number of instructions fetched each cycle (Total)
system.switch_cpus_1.fetch.rateDist::overflows            0      0.00%    100.00% # Number of instructions fetched each cycle (Total)
system.switch_cpus_1.fetch.rateDist::min_value            0                       # Number of instructions fetched each cycle (Total)
system.switch_cpus_1.fetch.rateDist::max_value            8                       # Number of instructions fetched each cycle (Total)
system.switch_cpus_1.fetch.rateDist::total     54481334                       # Number of instructions fetched each cycle (Total)
system.switch_cpus_1.idleCycles             167770093                       # Total number of cycles that the CPU has spent unscheduled due to idling
system.switch_cpus_1.iew.EXEC:branches        2324413                       # Number of branches executed
system.switch_cpus_1.iew.EXEC:nop              361643                       # number of nop insts executed
system.switch_cpus_1.iew.EXEC:rate           0.064145                       # Inst execution rate
system.switch_cpus_1.iew.EXEC:refs            3999884                       # number of memory reference insts executed
system.switch_cpus_1.iew.EXEC:stores           167503                       # Number of stores executed
system.switch_cpus_1.iew.EXEC:swp                   0                       # number of swp insts executed
system.switch_cpus_1.iew.WB:consumers        12082536                       # num instructions consuming a value
system.switch_cpus_1.iew.WB:count            13643332                       # cumulative count of insts written-back
system.switch_cpus_1.iew.WB:fanout           0.655112                       # average fanout of values written-back
system.switch_cpus_1.iew.WB:penalized               0                       # number of instrctions required to write to 'other' IQ
system.switch_cpus_1.iew.WB:penalized_rate            0                       # fraction of instructions written-back that wrote to 'other' IQ
system.switch_cpus_1.iew.WB:producers         7915413                       # num instructions producing a value
system.switch_cpus_1.iew.WB:rate             0.061387                       # insts written-back per cycle
system.switch_cpus_1.iew.WB:sent             14235325                       # cumulative count of insts sent to commit
system.switch_cpus_1.iew.branchMispredicts        22777                       # Number of branch mispredicts detected at execute
system.switch_cpus_1.iew.iewBlockCycles      25956763                       # Number of cycles IEW is blocking
system.switch_cpus_1.iew.iewDispLoadInsts      8755914                       # Number of dispatched load instructions
system.switch_cpus_1.iew.iewDispNonSpecInsts            1                       # Number of dispatched non-speculative instructions
system.switch_cpus_1.iew.iewDispSquashedInsts        19130                       # Number of squashed instructions skipped by dispatch
system.switch_cpus_1.iew.iewDispStoreInsts       184785                       # Number of dispatched store instructions
system.switch_cpus_1.iew.iewDispatchedInsts     32607062                       # Number of instructions dispatched to IQ
system.switch_cpus_1.iew.iewExecLoadInsts      3832381                       # Number of load instructions executed
system.switch_cpus_1.iew.iewExecSquashedInsts        18432                       # Number of squashed instructions skipped in execute
system.switch_cpus_1.iew.iewExecutedInsts     14256292                       # Number of executed instructions
system.switch_cpus_1.iew.iewIQFullEvents       378668                       # Number of times the IQ has become full, causing a stall
system.switch_cpus_1.iew.iewIdleCycles              0                       # Number of cycles IEW is idle
system.switch_cpus_1.iew.iewLSQFullEvents          916                       # Number of times the LSQ has become full, causing a stall
system.switch_cpus_1.iew.iewSquashCycles      2932638                       # Number of cycles IEW is squashing
system.switch_cpus_1.iew.iewUnblockCycles      1062409                       # Number of cycles IEW is unblocking
system.switch_cpus_1.iew.lsq.thread.0.blockedLoads            0                       # Number of blocked loads due to partial load-store forwarding
system.switch_cpus_1.iew.lsq.thread.0.cacheBlocked         5331                       # Number of times an access to memory failed due to the cache being blocked
system.switch_cpus_1.iew.lsq.thread.0.forwLoads        31736                       # Number of loads that had data forwarded from stores
system.switch_cpus_1.iew.lsq.thread.0.ignoredResponses          271                       # Number of memory responses ignored because the instruction is squashed
system.switch_cpus_1.iew.lsq.thread.0.invAddrLoads            0                       # Number of loads ignored due to an invalid address
system.switch_cpus_1.iew.lsq.thread.0.invAddrSwpfs            0                       # Number of software prefetches ignored due to an invalid address
system.switch_cpus_1.iew.lsq.thread.0.memOrderViolation          590                       # Number of memory ordering violations
system.switch_cpus_1.iew.lsq.thread.0.rescheduledLoads            0                       # Number of loads that were rescheduled
system.switch_cpus_1.iew.lsq.thread.0.squashedLoads      6244981                       # Number of loads squashed
system.switch_cpus_1.iew.lsq.thread.0.squashedStores        40689                       # Number of stores squashed
system.switch_cpus_1.iew.memOrderViolationEvents          590                       # Number of memory order violations
system.switch_cpus_1.iew.predictedNotTakenIncorrect         6733                       # Number of branches that were predicted not taken incorrectly
system.switch_cpus_1.iew.predictedTakenIncorrect        16044                       # Number of branches that were predicted taken incorrectly
system.switch_cpus_1.ipc                     0.044994                       # IPC: Instructions Per Cycle
system.switch_cpus_1.ipc_total               0.044994                       # IPC: Total IPC of All Threads
system.switch_cpus_1.iq.ISSUE:FU_type_0::No_OpClass            0      0.00%      0.00% # Type of FU issued
system.switch_cpus_1.iq.ISSUE:FU_type_0::IntAlu     10262638     71.89%     71.89% # Type of FU issued
system.switch_cpus_1.iq.ISSUE:FU_type_0::IntMult         1084      0.01%     71.90% # Type of FU issued
system.switch_cpus_1.iq.ISSUE:FU_type_0::IntDiv            0      0.00%     71.90% # Type of FU issued
system.switch_cpus_1.iq.ISSUE:FU_type_0::FloatAdd         3739      0.03%     71.93% # Type of FU issued
system.switch_cpus_1.iq.ISSUE:FU_type_0::FloatCmp            0      0.00%     71.93% # Type of FU issued
system.switch_cpus_1.iq.ISSUE:FU_type_0::FloatCvt         1100      0.01%     71.94% # Type of FU issued
system.switch_cpus_1.iq.ISSUE:FU_type_0::FloatMult          220      0.00%     71.94% # Type of FU issued
system.switch_cpus_1.iq.ISSUE:FU_type_0::FloatDiv            0      0.00%     71.94% # Type of FU issued
system.switch_cpus_1.iq.ISSUE:FU_type_0::FloatSqrt            0      0.00%     71.94% # Type of FU issued
system.switch_cpus_1.iq.ISSUE:FU_type_0::MemRead      3836845     26.88%     98.82% # Type of FU issued
system.switch_cpus_1.iq.ISSUE:FU_type_0::MemWrite       169098      1.18%    100.00% # Type of FU issued
system.switch_cpus_1.iq.ISSUE:FU_type_0::IprAccess            0      0.00%    100.00% # Type of FU issued
system.switch_cpus_1.iq.ISSUE:FU_type_0::InstPrefetch            0      0.00%    100.00% # Type of FU issued
system.switch_cpus_1.iq.ISSUE:FU_type_0::total     14274724                       # Type of FU issued
system.switch_cpus_1.iq.ISSUE:fu_busy_cnt         8717                       # FU busy when requested
system.switch_cpus_1.iq.ISSUE:fu_busy_rate     0.000611                       # FU busy rate (busy events/executed inst)
system.switch_cpus_1.iq.ISSUE:fu_full::No_OpClass            0      0.00%      0.00% # attempts to use FU when none available
system.switch_cpus_1.iq.ISSUE:fu_full::IntAlu           51      0.59%      0.59% # attempts to use FU when none available
system.switch_cpus_1.iq.ISSUE:fu_full::IntMult            0      0.00%      0.59% # attempts to use FU when none available
system.switch_cpus_1.iq.ISSUE:fu_full::IntDiv            0      0.00%      0.59% # attempts to use FU when none available
system.switch_cpus_1.iq.ISSUE:fu_full::FloatAdd            0      0.00%      0.59% # attempts to use FU when none available
system.switch_cpus_1.iq.ISSUE:fu_full::FloatCmp            0      0.00%      0.59% # attempts to use FU when none available
system.switch_cpus_1.iq.ISSUE:fu_full::FloatCvt            0      0.00%      0.59% # attempts to use FU when none available
system.switch_cpus_1.iq.ISSUE:fu_full::FloatMult            0      0.00%      0.59% # attempts to use FU when none available
system.switch_cpus_1.iq.ISSUE:fu_full::FloatDiv            0      0.00%      0.59% # attempts to use FU when none available
system.switch_cpus_1.iq.ISSUE:fu_full::FloatSqrt            0      0.00%      0.59% # attempts to use FU when none available
system.switch_cpus_1.iq.ISSUE:fu_full::MemRead         4819     55.28%     55.87% # attempts to use FU when none available
system.switch_cpus_1.iq.ISSUE:fu_full::MemWrite         3847     44.13%    100.00% # attempts to use FU when none available
system.switch_cpus_1.iq.ISSUE:fu_full::IprAccess            0      0.00%    100.00% # attempts to use FU when none available
system.switch_cpus_1.iq.ISSUE:fu_full::InstPrefetch            0      0.00%    100.00% # attempts to use FU when none available
system.switch_cpus_1.iq.ISSUE:issued_per_cycle::samples     54481334                       # Number of insts issued each cycle
system.switch_cpus_1.iq.ISSUE:issued_per_cycle::mean     0.262011                       # Number of insts issued each cycle
system.switch_cpus_1.iq.ISSUE:issued_per_cycle::stdev     0.646323                       # Number of insts issued each cycle
system.switch_cpus_1.iq.ISSUE:issued_per_cycle::underflows            0      0.00%      0.00% # Number of insts issued each cycle
system.switch_cpus_1.iq.ISSUE:issued_per_cycle::0     44215419     81.16%     81.16% # Number of insts issued each cycle
system.switch_cpus_1.iq.ISSUE:issued_per_cycle::1      7829052     14.37%     95.53% # Number of insts issued each cycle
system.switch_cpus_1.iq.ISSUE:issued_per_cycle::2      1250553      2.30%     97.82% # Number of insts issued each cycle
system.switch_cpus_1.iq.ISSUE:issued_per_cycle::3       921407      1.69%     99.51% # Number of insts issued each cycle
system.switch_cpus_1.iq.ISSUE:issued_per_cycle::4       164066      0.30%     99.81% # Number of insts issued each cycle
system.switch_cpus_1.iq.ISSUE:issued_per_cycle::5        85749      0.16%     99.97% # Number of insts issued each cycle
system.switch_cpus_1.iq.ISSUE:issued_per_cycle::6        10509      0.02%     99.99% # Number of insts issued each cycle
system.switch_cpus_1.iq.ISSUE:issued_per_cycle::7         4350      0.01%    100.00% # Number of insts issued each cycle
system.switch_cpus_1.iq.ISSUE:issued_per_cycle::8          229      0.00%    100.00% # Number of insts issued each cycle
system.switch_cpus_1.iq.ISSUE:issued_per_cycle::overflows            0      0.00%    100.00% # Number of insts issued each cycle
system.switch_cpus_1.iq.ISSUE:issued_per_cycle::min_value            0                       # Number of insts issued each cycle
system.switch_cpus_1.iq.ISSUE:issued_per_cycle::max_value            8                       # Number of insts issued each cycle
system.switch_cpus_1.iq.ISSUE:issued_per_cycle::total     54481334                       # Number of insts issued each cycle
system.switch_cpus_1.iq.ISSUE:rate           0.064228                       # Inst issue rate
system.switch_cpus_1.iq.iqInstsAdded         32245418                       # Number of instructions added to the IQ (excludes non-spec)
system.switch_cpus_1.iq.iqInstsIssued        14274724                       # Number of instructions issued
system.switch_cpus_1.iq.iqNonSpecInstsAdded            1                       # Number of non-speculative instructions added to the IQ
system.switch_cpus_1.iq.iqSquashedInstsExamined     22226239                       # Number of squashed instructions iterated over during squash; mainly for profiling
system.switch_cpus_1.iq.iqSquashedInstsIssued          547                       # Number of squashed instructions issued
system.switch_cpus_1.iq.iqSquashedOperandsExamined     31594477                       # Number of squashed operands that are examined and possibly removed from graph
system.switch_cpus_1.itb.data_accesses              0                       # DTB accesses
system.switch_cpus_1.itb.data_acv                   0                       # DTB access violations
system.switch_cpus_1.itb.data_hits                  0                       # DTB hits
system.switch_cpus_1.itb.data_misses                0                       # DTB misses
system.switch_cpus_1.itb.fetch_accesses       3230478                       # ITB accesses
system.switch_cpus_1.itb.fetch_acv                  0                       # ITB acv
system.switch_cpus_1.itb.fetch_hits           3230408                       # ITB hits
system.switch_cpus_1.itb.fetch_misses              70                       # ITB misses
system.switch_cpus_1.itb.read_accesses              0                       # DTB read accesses
system.switch_cpus_1.itb.read_acv                   0                       # DTB read access violations
system.switch_cpus_1.itb.read_hits                  0                       # DTB read hits
system.switch_cpus_1.itb.read_misses                0                       # DTB read misses
system.switch_cpus_1.itb.write_accesses             0                       # DTB write accesses
system.switch_cpus_1.itb.write_acv                  0                       # DTB write access violations
system.switch_cpus_1.itb.write_hits                 0                       # DTB write hits
system.switch_cpus_1.itb.write_misses               0                       # DTB write misses
system.switch_cpus_1.memDep0.conflictingLoads        67905                       # Number of conflicting loads.
system.switch_cpus_1.memDep0.conflictingStores         2691                       # Number of conflicting stores.
system.switch_cpus_1.memDep0.insertedLoads      8755914                       # Number of loads inserted to the mem dependence unit.
system.switch_cpus_1.memDep0.insertedStores       184785                       # Number of stores inserted to the mem dependence unit.
system.switch_cpus_1.numCycles              222251427                       # number of cpu cycles simulated
system.switch_cpus_1.rename.RENAME:BlockCycles     32791974                       # Number of cycles rename is blocking
system.switch_cpus_1.rename.RENAME:CommittedMaps      8255878                       # Number of HB maps that are committed
system.switch_cpus_1.rename.RENAME:IQFullEvents      4209360                       # Number of times rename has blocked due to IQ full
system.switch_cpus_1.rename.RENAME:IdleCycles      8233478                       # Number of cycles rename is idle
system.switch_cpus_1.rename.RENAME:LSQFullEvents        24449                       # Number of times rename has blocked due to LSQ full
system.switch_cpus_1.rename.RENAME:ROBFullEvents          689                       # Number of times rename has blocked due to ROB full
system.switch_cpus_1.rename.RENAME:RenameLookups     53283777                       # Number of register rename lookups that rename has made
system.switch_cpus_1.rename.RENAME:RenamedInsts     33062892                       # Number of instructions processed by rename
system.switch_cpus_1.rename.RENAME:RenamedOperands     27520983                       # Number of destination operands rename has renamed
system.switch_cpus_1.rename.RENAME:RunCycles      6553352                       # Number of cycles rename is running
system.switch_cpus_1.rename.RENAME:SquashCycles      2932638                       # Number of cycles rename is squashing
system.switch_cpus_1.rename.RENAME:UnblockCycles      3969880                       # Number of cycles rename is unblocking
system.switch_cpus_1.rename.RENAME:UndoneMaps     19265038                       # Number of HB maps that are undone due to squashing
system.switch_cpus_1.rename.RENAME:serializeStallCycles           11                       # count of cycles rename stalled for serializing inst
system.switch_cpus_1.rename.RENAME:serializingInsts            1                       # count of serializing insts renamed
system.switch_cpus_1.rename.RENAME:skidInsts      7725181                       # count of insts added to the skid buffer
system.switch_cpus_1.rename.RENAME:tempSerializingInsts            1                       # count of temporary serializing insts renamed
system.switch_cpus_1.timesIdled               1812161                       # Number of times that the entire CPU went into an idle state and unscheduled itself

---------- End Simulation Statistics   ----------
