
---------- Begin Simulation Statistics ----------
host_inst_rate                                 401689                       # Simulator instruction rate (inst/s)
host_mem_usage                                 402620                       # Number of bytes of host memory used
host_seconds                                    49.79                       # Real time elapsed on the host
host_tick_rate                              346307662                       # Simulator tick rate (ticks/s)
sim_freq                                 1000000000000                       # Frequency of simulated ticks
sim_insts                                    20000003                       # Number of instructions simulated
sim_seconds                                  0.017243                       # Number of seconds simulated
sim_ticks                                 17242631500                       # Number of ticks simulated
system.cpu.dcache.ReadReq_accesses            3277973                       # number of ReadReq accesses(hits+misses)
system.cpu.dcache.ReadReq_avg_miss_latency 19974.389304                       # average ReadReq miss latency
system.cpu.dcache.ReadReq_avg_mshr_miss_latency 17131.835832                       # average ReadReq mshr miss latency
system.cpu.dcache.ReadReq_hits                3220907                       # number of ReadReq hits
system.cpu.dcache.ReadReq_miss_latency     1139858500                       # number of ReadReq miss cycles
system.cpu.dcache.ReadReq_miss_rate          0.017409                       # miss rate for ReadReq accesses
system.cpu.dcache.ReadReq_misses                57066                       # number of ReadReq misses
system.cpu.dcache.ReadReq_mshr_hits              1439                       # number of ReadReq MSHR hits
system.cpu.dcache.ReadReq_mshr_miss_latency    952975500                       # number of ReadReq MSHR miss cycles
system.cpu.dcache.ReadReq_mshr_miss_rate     0.016970                       # mshr miss rate for ReadReq accesses
system.cpu.dcache.ReadReq_mshr_misses           55626                       # number of ReadReq MSHR misses
system.cpu.dcache.WriteReq_accesses           2972399                       # number of WriteReq accesses(hits+misses)
system.cpu.dcache.WriteReq_avg_miss_latency 23217.982130                       # average WriteReq miss latency
system.cpu.dcache.WriteReq_avg_mshr_miss_latency 20044.303797                       # average WriteReq mshr miss latency
system.cpu.dcache.WriteReq_hits               2969713                       # number of WriteReq hits
system.cpu.dcache.WriteReq_miss_latency      62363500                       # number of WriteReq miss cycles
system.cpu.dcache.WriteReq_miss_rate         0.000904                       # miss rate for WriteReq accesses
system.cpu.dcache.WriteReq_misses                2686                       # number of WriteReq misses
system.cpu.dcache.WriteReq_mshr_hits              158                       # number of WriteReq MSHR hits
system.cpu.dcache.WriteReq_mshr_miss_latency     50672000                       # number of WriteReq MSHR miss cycles
system.cpu.dcache.WriteReq_mshr_miss_rate     0.000850                       # mshr miss rate for WriteReq accesses
system.cpu.dcache.WriteReq_mshr_misses           2528                       # number of WriteReq MSHR misses
system.cpu.dcache.avg_blocked_cycles::no_mshrs     no_value                       # average number of cycles each access was blocked
system.cpu.dcache.avg_blocked_cycles::no_targets        54200                       # average number of cycles each access was blocked
system.cpu.dcache.avg_refs                 106.877738                       # Average number of references to valid blocks.
system.cpu.dcache.blocked::no_mshrs                 0                       # number of cycles access was blocked
system.cpu.dcache.blocked::no_targets              10                       # number of cycles access was blocked
system.cpu.dcache.blocked_cycles::no_mshrs            0                       # number of cycles access was blocked
system.cpu.dcache.blocked_cycles::no_targets       542000                       # number of cycles access was blocked
system.cpu.dcache.cache_copies                      0                       # number of cache copies performed
system.cpu.dcache.demand_accesses             6250372                       # number of demand (read+write) accesses
system.cpu.dcache.demand_avg_miss_latency 20120.196813                       # average overall miss latency
system.cpu.dcache.demand_avg_mshr_miss_latency 17258.443099                       # average overall mshr miss latency
system.cpu.dcache.demand_hits                 6190620                       # number of demand (read+write) hits
system.cpu.dcache.demand_miss_latency      1202222000                       # number of demand (read+write) miss cycles
system.cpu.dcache.demand_miss_rate           0.009560                       # miss rate for demand accesses
system.cpu.dcache.demand_misses                 59752                       # number of demand (read+write) misses
system.cpu.dcache.demand_mshr_hits               1597                       # number of demand (read+write) MSHR hits
system.cpu.dcache.demand_mshr_miss_latency   1003647500                       # number of demand (read+write) MSHR miss cycles
system.cpu.dcache.demand_mshr_miss_rate      0.009304                       # mshr miss rate for demand accesses
system.cpu.dcache.demand_mshr_misses            58154                       # number of demand (read+write) MSHR misses
system.cpu.dcache.fast_writes                       0                       # number of fast writes performed
system.cpu.dcache.mshr_cap_events                   0                       # number of times MSHR cap was activated
system.cpu.dcache.no_allocate_misses                0                       # Number of misses that were no-allocate
system.cpu.dcache.occ_%::0                   0.975086                       # Average percentage of cache occupancy
system.cpu.dcache.occ_blocks::0            998.487731                       # Average occupied blocks per context
system.cpu.dcache.overall_accesses            6250372                       # number of overall (read+write) accesses
system.cpu.dcache.overall_avg_miss_latency 20120.196813                       # average overall miss latency
system.cpu.dcache.overall_avg_mshr_miss_latency 17258.443099                       # average overall mshr miss latency
system.cpu.dcache.overall_avg_mshr_uncacheable_latency     no_value                       # average overall mshr uncacheable latency
system.cpu.dcache.overall_hits                6190620                       # number of overall hits
system.cpu.dcache.overall_miss_latency     1202222000                       # number of overall miss cycles
system.cpu.dcache.overall_miss_rate          0.009560                       # miss rate for overall accesses
system.cpu.dcache.overall_misses                59752                       # number of overall misses
system.cpu.dcache.overall_mshr_hits              1597                       # number of overall MSHR hits
system.cpu.dcache.overall_mshr_miss_latency   1003647500                       # number of overall MSHR miss cycles
system.cpu.dcache.overall_mshr_miss_rate     0.009304                       # mshr miss rate for overall accesses
system.cpu.dcache.overall_mshr_misses           58154                       # number of overall MSHR misses
system.cpu.dcache.overall_mshr_uncacheable_latency            0                       # number of overall MSHR uncacheable cycles
system.cpu.dcache.overall_mshr_uncacheable_misses            0                       # number of overall MSHR uncacheable misses
system.cpu.dcache.prefetch_accuracy          no_value                       # ratio of good prefetches to total prefetches
system.cpu.dcache.prefetch_hits                     0                       # number of prefetched blocks that were accessed
system.cpu.dcache.replacements                  56901                       # number of replacements
system.cpu.dcache.sampled_refs                  57925                       # Sample count of references to valid blocks.
system.cpu.dcache.soft_prefetch_mshr_full            0                       # number of mshr full events for SW prefetching instrutions
system.cpu.dcache.tagsinuse                998.487731                       # Cycle average of tags in use
system.cpu.dcache.total_refs                  6190893                       # Total number of references to valid blocks.
system.cpu.dcache.warmup_cycle           503793250000                       # Cycle when the warmup percentage was hit.
system.cpu.dcache.writebacks                     2468                       # number of writebacks
system.cpu.dtb.data_accesses                        1                       # DTB accesses
system.cpu.dtb.data_acv                             0                       # DTB access violations
system.cpu.dtb.data_hits                            1                       # DTB hits
system.cpu.dtb.data_misses                          0                       # DTB misses
system.cpu.dtb.fetch_accesses                       0                       # ITB accesses
system.cpu.dtb.fetch_acv                            0                       # ITB acv
system.cpu.dtb.fetch_hits                           0                       # ITB hits
system.cpu.dtb.fetch_misses                         0                       # ITB misses
system.cpu.dtb.read_accesses                        1                       # DTB read accesses
system.cpu.dtb.read_acv                             0                       # DTB read access violations
system.cpu.dtb.read_hits                            1                       # DTB read hits
system.cpu.dtb.read_misses                          0                       # DTB read misses
system.cpu.dtb.write_accesses                       0                       # DTB write accesses
system.cpu.dtb.write_acv                            0                       # DTB write access violations
system.cpu.dtb.write_hits                           0                       # DTB write hits
system.cpu.dtb.write_misses                         0                       # DTB write misses
system.cpu.icache.ReadReq_accesses           11894496                       # number of ReadReq accesses(hits+misses)
system.cpu.icache.ReadReq_avg_miss_latency 47333.333333                       # average ReadReq miss latency
system.cpu.icache.ReadReq_avg_mshr_miss_latency 57285.714286                       # average ReadReq mshr miss latency
system.cpu.icache.ReadReq_hits               11894484                       # number of ReadReq hits
system.cpu.icache.ReadReq_miss_latency         568000                       # number of ReadReq miss cycles
system.cpu.icache.ReadReq_miss_rate          0.000001                       # miss rate for ReadReq accesses
system.cpu.icache.ReadReq_misses                   12                       # number of ReadReq misses
system.cpu.icache.ReadReq_mshr_hits                 4                       # number of ReadReq MSHR hits
system.cpu.icache.ReadReq_mshr_miss_latency       401000                       # number of ReadReq MSHR miss cycles
system.cpu.icache.ReadReq_mshr_miss_rate     0.000001                       # mshr miss rate for ReadReq accesses
system.cpu.icache.ReadReq_mshr_misses               7                       # number of ReadReq MSHR misses
system.cpu.icache.avg_blocked_cycles::no_mshrs     no_value                       # average number of cycles each access was blocked
system.cpu.icache.avg_blocked_cycles::no_targets        22000                       # average number of cycles each access was blocked
system.cpu.icache.avg_refs               1486810.500000                       # Average number of references to valid blocks.
system.cpu.icache.blocked::no_mshrs                 0                       # number of cycles access was blocked
system.cpu.icache.blocked::no_targets               1                       # number of cycles access was blocked
system.cpu.icache.blocked_cycles::no_mshrs            0                       # number of cycles access was blocked
system.cpu.icache.blocked_cycles::no_targets        22000                       # number of cycles access was blocked
system.cpu.icache.cache_copies                      0                       # number of cache copies performed
system.cpu.icache.demand_accesses            11894496                       # number of demand (read+write) accesses
system.cpu.icache.demand_avg_miss_latency 47333.333333                       # average overall miss latency
system.cpu.icache.demand_avg_mshr_miss_latency 57285.714286                       # average overall mshr miss latency
system.cpu.icache.demand_hits                11894484                       # number of demand (read+write) hits
system.cpu.icache.demand_miss_latency          568000                       # number of demand (read+write) miss cycles
system.cpu.icache.demand_miss_rate           0.000001                       # miss rate for demand accesses
system.cpu.icache.demand_misses                    12                       # number of demand (read+write) misses
system.cpu.icache.demand_mshr_hits                  4                       # number of demand (read+write) MSHR hits
system.cpu.icache.demand_mshr_miss_latency       401000                       # number of demand (read+write) MSHR miss cycles
system.cpu.icache.demand_mshr_miss_rate      0.000001                       # mshr miss rate for demand accesses
system.cpu.icache.demand_mshr_misses                7                       # number of demand (read+write) MSHR misses
system.cpu.icache.fast_writes                       0                       # number of fast writes performed
system.cpu.icache.mshr_cap_events                   0                       # number of times MSHR cap was activated
system.cpu.icache.no_allocate_misses                0                       # Number of misses that were no-allocate
system.cpu.icache.occ_%::0                   0.012503                       # Average percentage of cache occupancy
system.cpu.icache.occ_blocks::0              6.401650                       # Average occupied blocks per context
system.cpu.icache.overall_accesses           11894496                       # number of overall (read+write) accesses
system.cpu.icache.overall_avg_miss_latency 47333.333333                       # average overall miss latency
system.cpu.icache.overall_avg_mshr_miss_latency 57285.714286                       # average overall mshr miss latency
system.cpu.icache.overall_avg_mshr_uncacheable_latency     no_value                       # average overall mshr uncacheable latency
system.cpu.icache.overall_hits               11894484                       # number of overall hits
system.cpu.icache.overall_miss_latency         568000                       # number of overall miss cycles
system.cpu.icache.overall_miss_rate          0.000001                       # miss rate for overall accesses
system.cpu.icache.overall_misses                   12                       # number of overall misses
system.cpu.icache.overall_mshr_hits                 4                       # number of overall MSHR hits
system.cpu.icache.overall_mshr_miss_latency       401000                       # number of overall MSHR miss cycles
system.cpu.icache.overall_mshr_miss_rate     0.000001                       # mshr miss rate for overall accesses
system.cpu.icache.overall_mshr_misses               7                       # number of overall MSHR misses
system.cpu.icache.overall_mshr_uncacheable_latency            0                       # number of overall MSHR uncacheable cycles
system.cpu.icache.overall_mshr_uncacheable_misses            0                       # number of overall MSHR uncacheable misses
system.cpu.icache.prefetch_accuracy          no_value                       # ratio of good prefetches to total prefetches
system.cpu.icache.prefetch_hits                     0                       # number of prefetched blocks that were accessed
system.cpu.icache.replacements                      0                       # number of replacements
system.cpu.icache.sampled_refs                      8                       # Sample count of references to valid blocks.
system.cpu.icache.soft_prefetch_mshr_full            0                       # number of mshr full events for SW prefetching instrutions
system.cpu.icache.tagsinuse                  6.401650                       # Cycle average of tags in use
system.cpu.icache.total_refs                 11894484                       # Total number of references to valid blocks.
system.cpu.icache.warmup_cycle                      0                       # Cycle when the warmup percentage was hit.
system.cpu.icache.writebacks                        0                       # number of writebacks
system.cpu.idle_fraction                            0                       # Percentage of idle cycles
system.cpu.itb.data_accesses                        0                       # DTB accesses
system.cpu.itb.data_acv                             0                       # DTB access violations
system.cpu.itb.data_hits                            0                       # DTB hits
system.cpu.itb.data_misses                          0                       # DTB misses
system.cpu.itb.fetch_accesses                       2                       # ITB accesses
system.cpu.itb.fetch_acv                            0                       # ITB acv
system.cpu.itb.fetch_hits                           2                       # ITB hits
system.cpu.itb.fetch_misses                         0                       # ITB misses
system.cpu.itb.read_accesses                        0                       # DTB read accesses
system.cpu.itb.read_acv                             0                       # DTB read access violations
system.cpu.itb.read_hits                            0                       # DTB read hits
system.cpu.itb.read_misses                          0                       # DTB read misses
system.cpu.itb.write_accesses                       0                       # DTB write accesses
system.cpu.itb.write_acv                            0                       # DTB write access violations
system.cpu.itb.write_hits                           0                       # DTB write hits
system.cpu.itb.write_misses                         0                       # DTB write misses
system.cpu.not_idle_fraction                        1                       # Percentage of non-idle cycles
system.cpu.numCycles                                2                       # number of cpu cycles simulated
system.cpu.num_insts                                2                       # Number of instructions executed
system.cpu.num_refs                                 1                       # Number of memory references
system.cpu.workload.PROG:num_syscalls               0                       # Number of system calls
system.l2.HardPFReq_avg_mshr_miss_latency 31023.910365                       # average HardPFReq mshr miss latency
system.l2.HardPFReq_mshr_miss_latency       208015319                       # number of HardPFReq MSHR miss cycles
system.l2.HardPFReq_mshr_miss_rate                inf                       # mshr miss rate for HardPFReq accesses
system.l2.HardPFReq_mshr_misses                  6705                       # number of HardPFReq MSHR misses
system.l2.ReadExReq_accesses                     2298                       # number of ReadExReq accesses(hits+misses)
system.l2.ReadExReq_avg_miss_latency     56163.461538                       # average ReadExReq miss latency
system.l2.ReadExReq_avg_mshr_miss_latency 40211.538462                       # average ReadExReq mshr miss latency
system.l2.ReadExReq_hits                         2038                       # number of ReadExReq hits
system.l2.ReadExReq_miss_latency             14602500                       # number of ReadExReq miss cycles
system.l2.ReadExReq_miss_rate                0.113142                       # miss rate for ReadExReq accesses
system.l2.ReadExReq_misses                        260                       # number of ReadExReq misses
system.l2.ReadExReq_mshr_miss_latency        10455000                       # number of ReadExReq MSHR miss cycles
system.l2.ReadExReq_mshr_miss_rate           0.113142                       # mshr miss rate for ReadExReq accesses
system.l2.ReadExReq_mshr_misses                   260                       # number of ReadExReq MSHR misses
system.l2.ReadReq_accesses                      55635                       # number of ReadReq accesses(hits+misses)
system.l2.ReadReq_avg_miss_latency       56212.513631                       # average ReadReq miss latency
system.l2.ReadReq_avg_mshr_miss_latency  40245.636760                       # average ReadReq mshr miss latency
system.l2.ReadReq_hits                          48299                       # number of ReadReq hits
system.l2.ReadReq_miss_latency              412375000                       # number of ReadReq miss cycles
system.l2.ReadReq_miss_rate                  0.131859                       # miss rate for ReadReq accesses
system.l2.ReadReq_misses                         7336                       # number of ReadReq misses
system.l2.ReadReq_mshr_miss_latency         295161500                       # number of ReadReq MSHR miss cycles
system.l2.ReadReq_mshr_miss_rate             0.131823                       # mshr miss rate for ReadReq accesses
system.l2.ReadReq_mshr_misses                    7334                       # number of ReadReq MSHR misses
system.l2.UpgradeReq_accesses                     230                       # number of UpgradeReq accesses(hits+misses)
system.l2.UpgradeReq_avg_miss_latency    56702.173913                       # average UpgradeReq miss latency
system.l2.UpgradeReq_avg_mshr_miss_latency 40676.086957                       # average UpgradeReq mshr miss latency
system.l2.UpgradeReq_miss_latency            13041500                       # number of UpgradeReq miss cycles
system.l2.UpgradeReq_miss_rate                      1                       # miss rate for UpgradeReq accesses
system.l2.UpgradeReq_misses                       230                       # number of UpgradeReq misses
system.l2.UpgradeReq_mshr_miss_latency        9355500                       # number of UpgradeReq MSHR miss cycles
system.l2.UpgradeReq_mshr_miss_rate                 1                       # mshr miss rate for UpgradeReq accesses
system.l2.UpgradeReq_mshr_misses                  230                       # number of UpgradeReq MSHR misses
system.l2.Writeback_accesses                     2468                       # number of Writeback accesses(hits+misses)
system.l2.Writeback_hits                         2468                       # number of Writeback hits
system.l2.avg_blocked_cycles::no_mshrs       no_value                       # average number of cycles each access was blocked
system.l2.avg_blocked_cycles::no_targets     no_value                       # average number of cycles each access was blocked
system.l2.avg_refs                           3.411967                       # Average number of references to valid blocks.
system.l2.blocked::no_mshrs                         0                       # number of cycles access was blocked
system.l2.blocked::no_targets                       0                       # number of cycles access was blocked
system.l2.blocked_cycles::no_mshrs                  0                       # number of cycles access was blocked
system.l2.blocked_cycles::no_targets                0                       # number of cycles access was blocked
system.l2.cache_copies                              0                       # number of cache copies performed
system.l2.demand_accesses                       57933                       # number of demand (read+write) accesses
system.l2.demand_avg_miss_latency        56210.834650                       # average overall miss latency
system.l2.demand_avg_mshr_miss_latency   40244.469318                       # average overall mshr miss latency
system.l2.demand_hits                           50337                       # number of demand (read+write) hits
system.l2.demand_miss_latency               426977500                       # number of demand (read+write) miss cycles
system.l2.demand_miss_rate                   0.131117                       # miss rate for demand accesses
system.l2.demand_misses                          7596                       # number of demand (read+write) misses
system.l2.demand_mshr_hits                          0                       # number of demand (read+write) MSHR hits
system.l2.demand_mshr_miss_latency          305616500                       # number of demand (read+write) MSHR miss cycles
system.l2.demand_mshr_miss_rate              0.131082                       # mshr miss rate for demand accesses
system.l2.demand_mshr_misses                     7594                       # number of demand (read+write) MSHR misses
system.l2.fast_writes                               0                       # number of fast writes performed
system.l2.mshr_cap_events                           0                       # number of times MSHR cap was activated
system.l2.no_allocate_misses                        0                       # Number of misses that were no-allocate
system.l2.occ_%::0                           0.424569                       # Average percentage of cache occupancy
system.l2.occ_%::1                           0.045228                       # Average percentage of cache occupancy
system.l2.occ_blocks::0                   6956.140378                       # Average occupied blocks per context
system.l2.occ_blocks::1                    741.015826                       # Average occupied blocks per context
system.l2.overall_accesses                      57933                       # number of overall (read+write) accesses
system.l2.overall_avg_miss_latency       56210.834650                       # average overall miss latency
system.l2.overall_avg_mshr_miss_latency  35920.820967                       # average overall mshr miss latency
system.l2.overall_avg_mshr_uncacheable_latency     no_value                       # average overall mshr uncacheable latency
system.l2.overall_hits                          50337                       # number of overall hits
system.l2.overall_miss_latency              426977500                       # number of overall miss cycles
system.l2.overall_miss_rate                  0.131117                       # miss rate for overall accesses
system.l2.overall_misses                         7596                       # number of overall misses
system.l2.overall_mshr_hits                         0                       # number of overall MSHR hits
system.l2.overall_mshr_miss_latency         513631819                       # number of overall MSHR miss cycles
system.l2.overall_mshr_miss_rate             0.246820                       # mshr miss rate for overall accesses
system.l2.overall_mshr_misses                   14299                       # number of overall MSHR misses
system.l2.overall_mshr_uncacheable_latency            0                       # number of overall MSHR uncacheable cycles
system.l2.overall_mshr_uncacheable_misses            0                       # number of overall MSHR uncacheable misses
system.l2.prefetch_accuracy                  0.690082                       # ratio of good prefetches to total prefetches
system.l2.prefetch_hits                          4627                       # number of prefetched blocks that were accessed
system.l2.prefetcher.num_hwpf_already_in_prefetcher           39                       # number of hwpf that were already in the prefetch queue
system.l2.prefetcher.num_hwpf_evicted               0                       # number of hwpf removed due to no buffer left
system.l2.prefetcher.num_hwpf_identified         6744                       # number of hwpf identified
system.l2.prefetcher.num_hwpf_issued             6705                       # number of hwpf issued
system.l2.prefetcher.num_hwpf_removed_MSHR_hit            0                       # number of hwpf removed because MSHR allocated
system.l2.prefetcher.num_hwpf_span_page             0                       # number of hwpf spanning a virtual page
system.l2.prefetcher.num_hwpf_squashed_from_miss            0                       # number of hwpf that got squashed due to a miss aborting calculation time
system.l2.replacements                            885                       # number of replacements
system.l2.sampled_refs                          14222                       # Sample count of references to valid blocks.
system.l2.soft_prefetch_mshr_full                   0                       # number of mshr full events for SW prefetching instrutions
system.l2.tagsinuse                       7697.156204                       # Cycle average of tags in use
system.l2.total_refs                            48525                       # Total number of references to valid blocks.
system.l2.warmup_cycle                              0                       # Cycle when the warmup percentage was hit.
system.l2.writebacks                              186                       # number of writebacks
system.switch_cpus.dtb.data_accesses          3032396                       # DTB accesses
system.switch_cpus.dtb.data_acv                     0                       # DTB access violations
system.switch_cpus.dtb.data_hits              3023144                       # DTB hits
system.switch_cpus.dtb.data_misses               9252                       # DTB misses
system.switch_cpus.dtb.fetch_accesses               0                       # ITB accesses
system.switch_cpus.dtb.fetch_acv                    0                       # ITB acv
system.switch_cpus.dtb.fetch_hits                   0                       # ITB hits
system.switch_cpus.dtb.fetch_misses                 0                       # ITB misses
system.switch_cpus.dtb.read_accesses          1557076                       # DTB read accesses
system.switch_cpus.dtb.read_acv                     0                       # DTB read access violations
system.switch_cpus.dtb.read_hits              1547977                       # DTB read hits
system.switch_cpus.dtb.read_misses               9099                       # DTB read misses
system.switch_cpus.dtb.write_accesses         1475320                       # DTB write accesses
system.switch_cpus.dtb.write_acv                    0                       # DTB write access violations
system.switch_cpus.dtb.write_hits             1475167                       # DTB write hits
system.switch_cpus.dtb.write_misses               153                       # DTB write misses
system.switch_cpus.idle_fraction                    1                       # Percentage of idle cycles
system.switch_cpus.itb.data_accesses                0                       # DTB accesses
system.switch_cpus.itb.data_acv                     0                       # DTB access violations
system.switch_cpus.itb.data_hits                    0                       # DTB hits
system.switch_cpus.itb.data_misses                  0                       # DTB misses
system.switch_cpus.itb.fetch_accesses        10009255                       # ITB accesses
system.switch_cpus.itb.fetch_acv                    0                       # ITB acv
system.switch_cpus.itb.fetch_hits            10009254                       # ITB hits
system.switch_cpus.itb.fetch_misses                 1                       # ITB misses
system.switch_cpus.itb.read_accesses                0                       # DTB read accesses
system.switch_cpus.itb.read_acv                     0                       # DTB read access violations
system.switch_cpus.itb.read_hits                    0                       # DTB read hits
system.switch_cpus.itb.read_misses                  0                       # DTB read misses
system.switch_cpus.itb.write_accesses               0                       # DTB write accesses
system.switch_cpus.itb.write_acv                    0                       # DTB write access violations
system.switch_cpus.itb.write_hits                   0                       # DTB write hits
system.switch_cpus.itb.write_misses                 0                       # DTB write misses
system.switch_cpus.not_idle_fraction                0                       # Percentage of non-idle cycles
system.switch_cpus.numCycles                 27457313                       # number of cpu cycles simulated
system.switch_cpus.num_insts                 10000001                       # Number of instructions executed
system.switch_cpus.num_refs                   3032396                       # Number of memory references
system.switch_cpus_1.BPredUnit.BTBCorrect            0                       # Number of correct BTB predictions (this stat may not work properly.
system.switch_cpus_1.BPredUnit.BTBHits        1639065                       # Number of BTB hits
system.switch_cpus_1.BPredUnit.BTBLookups      1645394                       # Number of BTB lookups
system.switch_cpus_1.BPredUnit.RASInCorrect            0                       # Number of incorrect RAS predictions.
system.switch_cpus_1.BPredUnit.condIncorrect        76081                       # Number of conditional branches incorrect
system.switch_cpus_1.BPredUnit.condPredicted      1948116                       # Number of conditional branches predicted
system.switch_cpus_1.BPredUnit.lookups        1958913                       # Number of BP lookups
system.switch_cpus_1.BPredUnit.usedRAS              0                       # Number of times the RAS was used to get a target.
system.switch_cpus_1.commit.COM:branches      1540870                       # Number of branches committed
system.switch_cpus_1.commit.COM:bw_lim_events        66874                       # number cycles where commit BW limit reached
system.switch_cpus_1.commit.COM:bw_limited            0                       # number of insts not committed due to BW limits
system.switch_cpus_1.commit.COM:committed_per_cycle::samples      6726938                       # Number of insts commited each cycle
system.switch_cpus_1.commit.COM:committed_per_cycle::mean     1.509629                       # Number of insts commited each cycle
system.switch_cpus_1.commit.COM:committed_per_cycle::stdev     1.797790                       # Number of insts commited each cycle
system.switch_cpus_1.commit.COM:committed_per_cycle::underflows            0      0.00%      0.00% # Number of insts commited each cycle
system.switch_cpus_1.commit.COM:committed_per_cycle::0      2207895     32.82%     32.82% # Number of insts commited each cycle
system.switch_cpus_1.commit.COM:committed_per_cycle::1      2883896     42.87%     75.69% # Number of insts commited each cycle
system.switch_cpus_1.commit.COM:committed_per_cycle::2        85345      1.27%     76.96% # Number of insts commited each cycle
system.switch_cpus_1.commit.COM:committed_per_cycle::3        58227      0.87%     77.83% # Number of insts commited each cycle
system.switch_cpus_1.commit.COM:committed_per_cycle::4       740004     11.00%     88.83% # Number of insts commited each cycle
system.switch_cpus_1.commit.COM:committed_per_cycle::5       679246     10.10%     98.92% # Number of insts commited each cycle
system.switch_cpus_1.commit.COM:committed_per_cycle::6         3478      0.05%     98.98% # Number of insts commited each cycle
system.switch_cpus_1.commit.COM:committed_per_cycle::7         1973      0.03%     99.01% # Number of insts commited each cycle
system.switch_cpus_1.commit.COM:committed_per_cycle::8        66874      0.99%    100.00% # Number of insts commited each cycle
system.switch_cpus_1.commit.COM:committed_per_cycle::overflows            0      0.00%    100.00% # Number of insts commited each cycle
system.switch_cpus_1.commit.COM:committed_per_cycle::min_value            0                       # Number of insts commited each cycle
system.switch_cpus_1.commit.COM:committed_per_cycle::max_value            8                       # Number of insts commited each cycle
system.switch_cpus_1.commit.COM:committed_per_cycle::total      6726938                       # Number of insts commited each cycle
system.switch_cpus_1.commit.COM:count        10155184                       # Number of instructions committed
system.switch_cpus_1.commit.COM:loads         1572087                       # Number of loads committed
system.switch_cpus_1.commit.COM:membars             0                       # Number of memory barriers committed
system.switch_cpus_1.commit.COM:refs          3069319                       # Number of memory references committed
system.switch_cpus_1.commit.COM:swp_count            0                       # Number of s/w prefetches committed
system.switch_cpus_1.commit.branchMispredicts        76077                       # The number of times a branch was mispredicted
system.switch_cpus_1.commit.commitCommittedInsts     10155184                       # The number of committed instructions
system.switch_cpus_1.commit.commitSquashedInsts      1960474                       # The number of squashed insts skipped by commit
system.switch_cpus_1.committedInsts          10000000                       # Number of Instructions Simulated
system.switch_cpus_1.committedInsts_total     10000000                       # Number of Instructions Simulated
system.switch_cpus_1.cpi                     0.702795                       # CPI: Cycles Per Instruction
system.switch_cpus_1.cpi_total               0.702795                       # CPI: Total CPI of All Threads
system.switch_cpus_1.decode.DECODE:BlockedCycles        16848                       # Number of cycles decode is blocked
system.switch_cpus_1.decode.DECODE:BranchMispred           23                       # Number of times decode detected a branch misprediction
system.switch_cpus_1.decode.DECODE:BranchResolved        10619                       # Number of times decode resolved a branch
system.switch_cpus_1.decode.DECODE:DecodedInsts     13017590                       # Number of instructions handled by decode
system.switch_cpus_1.decode.DECODE:IdleCycles      3765784                       # Number of cycles decode is idle
system.switch_cpus_1.decode.DECODE:RunCycles      2942864                       # Number of cycles decode is running
system.switch_cpus_1.decode.DECODE:SquashCycles       298323                       # Number of cycles decode is squashing
system.switch_cpus_1.decode.DECODE:SquashedInsts            9                       # Number of squashed instructions handled by decode
system.switch_cpus_1.decode.DECODE:UnblockCycles         1441                       # Number of cycles decode is unblocking
system.switch_cpus_1.dtb.data_accesses        3531369                       # DTB accesses
system.switch_cpus_1.dtb.data_acv                   0                       # DTB access violations
system.switch_cpus_1.dtb.data_hits            3512993                       # DTB hits
system.switch_cpus_1.dtb.data_misses            18376                       # DTB misses
system.switch_cpus_1.dtb.fetch_accesses             0                       # ITB accesses
system.switch_cpus_1.dtb.fetch_acv                  0                       # ITB acv
system.switch_cpus_1.dtb.fetch_hits                 0                       # ITB hits
system.switch_cpus_1.dtb.fetch_misses               0                       # ITB misses
system.switch_cpus_1.dtb.read_accesses        1825338                       # DTB read accesses
system.switch_cpus_1.dtb.read_acv                   0                       # DTB read access violations
system.switch_cpus_1.dtb.read_hits            1807809                       # DTB read hits
system.switch_cpus_1.dtb.read_misses            17529                       # DTB read misses
system.switch_cpus_1.dtb.write_accesses       1706031                       # DTB write accesses
system.switch_cpus_1.dtb.write_acv                  0                       # DTB write access violations
system.switch_cpus_1.dtb.write_hits           1705184                       # DTB write hits
system.switch_cpus_1.dtb.write_misses             847                       # DTB write misses
system.switch_cpus_1.fetch.Branches           1958913                       # Number of branches that fetch encountered
system.switch_cpus_1.fetch.CacheLines         1885240                       # Number of cache lines fetched
system.switch_cpus_1.fetch.Cycles             4851851                       # Number of cycles fetch has run and was not squashing or blocked
system.switch_cpus_1.fetch.IcacheSquashes        29136                       # Number of outstanding Icache misses that were squashed
system.switch_cpus_1.fetch.Insts             13144990                       # Number of instructions fetch has processed
system.switch_cpus_1.fetch.SquashCycles         91451                       # Number of cycles fetch has spent squashing
system.switch_cpus_1.fetch.branchRate        0.278732                       # Number of branch fetches per cycle
system.switch_cpus_1.fetch.icacheStallCycles      1885240                       # Number of cycles fetch is stalled on an Icache miss
system.switch_cpus_1.fetch.predictedBranches      1639065                       # Number of branches that fetch has predicted taken
system.switch_cpus_1.fetch.rate              1.870388                       # Number of inst fetches per cycle
system.switch_cpus_1.fetch.rateDist::samples      7025261                       # Number of instructions fetched each cycle (Total)
system.switch_cpus_1.fetch.rateDist::mean     1.871103                       # Number of instructions fetched each cycle (Total)
system.switch_cpus_1.fetch.rateDist::stdev     2.791040                       # Number of instructions fetched each cycle (Total)
system.switch_cpus_1.fetch.rateDist::underflows            0      0.00%      0.00% # Number of instructions fetched each cycle (Total)
system.switch_cpus_1.fetch.rateDist::0        4058650     57.77%     57.77% # Number of instructions fetched each cycle (Total)
system.switch_cpus_1.fetch.rateDist::1         888652     12.65%     70.42% # Number of instructions fetched each cycle (Total)
system.switch_cpus_1.fetch.rateDist::2          70929      1.01%     71.43% # Number of instructions fetched each cycle (Total)
system.switch_cpus_1.fetch.rateDist::3          30342      0.43%     71.86% # Number of instructions fetched each cycle (Total)
system.switch_cpus_1.fetch.rateDist::4         392911      5.59%     77.46% # Number of instructions fetched each cycle (Total)
system.switch_cpus_1.fetch.rateDist::5         575673      8.19%     85.65% # Number of instructions fetched each cycle (Total)
system.switch_cpus_1.fetch.rateDist::6          25017      0.36%     86.01% # Number of instructions fetched each cycle (Total)
system.switch_cpus_1.fetch.rateDist::7         441353      6.28%     92.29% # Number of instructions fetched each cycle (Total)
system.switch_cpus_1.fetch.rateDist::8         541734      7.71%    100.00% # Number of instructions fetched each cycle (Total)
system.switch_cpus_1.fetch.rateDist::overflows            0      0.00%    100.00% # Number of instructions fetched each cycle (Total)
system.switch_cpus_1.fetch.rateDist::min_value            0                       # Number of instructions fetched each cycle (Total)
system.switch_cpus_1.fetch.rateDist::max_value            8                       # Number of instructions fetched each cycle (Total)
system.switch_cpus_1.fetch.rateDist::total      7025261                       # Number of instructions fetched each cycle (Total)
system.switch_cpus_1.idleCycles                  2688                       # Total number of cycles that the CPU has spent unscheduled due to idling
system.switch_cpus_1.iew.EXEC:branches        1724867                       # Number of branches executed
system.switch_cpus_1.iew.EXEC:nop              387590                       # number of nop insts executed
system.switch_cpus_1.iew.EXEC:rate           1.629258                       # Inst execution rate
system.switch_cpus_1.iew.EXEC:refs            3531369                       # number of memory reference insts executed
system.switch_cpus_1.iew.EXEC:stores          1706031                       # Number of stores executed
system.switch_cpus_1.iew.EXEC:swp                   0                       # number of swp insts executed
system.switch_cpus_1.iew.WB:consumers         9168966                       # num instructions consuming a value
system.switch_cpus_1.iew.WB:count            11386665                       # cumulative count of insts written-back
system.switch_cpus_1.iew.WB:fanout           0.742513                       # average fanout of values written-back
system.switch_cpus_1.iew.WB:penalized               0                       # number of instrctions required to write to 'other' IQ
system.switch_cpus_1.iew.WB:penalized_rate            0                       # fraction of instructions written-back that wrote to 'other' IQ
system.switch_cpus_1.iew.WB:producers         6808079                       # num instructions producing a value
system.switch_cpus_1.iew.WB:rate             1.620197                       # insts written-back per cycle
system.switch_cpus_1.iew.WB:sent             11409188                       # cumulative count of insts sent to commit
system.switch_cpus_1.iew.branchMispredicts        78953                       # Number of branch mispredicts detected at execute
system.switch_cpus_1.iew.iewBlockCycles           395                       # Number of cycles IEW is blocking
system.switch_cpus_1.iew.iewDispLoadInsts      1905401                       # Number of dispatched load instructions
system.switch_cpus_1.iew.iewDispNonSpecInsts            0                       # Number of dispatched non-speculative instructions
system.switch_cpus_1.iew.iewDispSquashedInsts       140458                       # Number of squashed instructions skipped by dispatch
system.switch_cpus_1.iew.iewDispStoreInsts      1786666                       # Number of dispatched store instructions
system.switch_cpus_1.iew.iewDispatchedInsts     12443753                       # Number of instructions dispatched to IQ
system.switch_cpus_1.iew.iewExecLoadInsts      1825338                       # Number of load instructions executed
system.switch_cpus_1.iew.iewExecSquashedInsts       142475                       # Number of squashed instructions skipped in execute
system.switch_cpus_1.iew.iewExecutedInsts     11450342                       # Number of executed instructions
system.switch_cpus_1.iew.iewIQFullEvents           23                       # Number of times the IQ has become full, causing a stall
system.switch_cpus_1.iew.iewIdleCycles              0                       # Number of cycles IEW is idle
system.switch_cpus_1.iew.iewLSQFullEvents            0                       # Number of times the LSQ has become full, causing a stall
system.switch_cpus_1.iew.iewSquashCycles       298323                       # Number of cycles IEW is squashing
system.switch_cpus_1.iew.iewUnblockCycles           27                       # Number of cycles IEW is unblocking
system.switch_cpus_1.iew.lsq.thread.0.blockedLoads            0                       # Number of blocked loads due to partial load-store forwarding
system.switch_cpus_1.iew.lsq.thread.0.cacheBlocked           10                       # Number of times an access to memory failed due to the cache being blocked
system.switch_cpus_1.iew.lsq.thread.0.forwLoads        77814                       # Number of loads that had data forwarded from stores
system.switch_cpus_1.iew.lsq.thread.0.ignoredResponses         4350                       # Number of memory responses ignored because the instruction is squashed
system.switch_cpus_1.iew.lsq.thread.0.invAddrLoads            0                       # Number of loads ignored due to an invalid address
system.switch_cpus_1.iew.lsq.thread.0.invAddrSwpfs            0                       # Number of software prefetches ignored due to an invalid address
system.switch_cpus_1.iew.lsq.thread.0.memOrderViolation         5270                       # Number of memory ordering violations
system.switch_cpus_1.iew.lsq.thread.0.rescheduledLoads            0                       # Number of loads that were rescheduled
system.switch_cpus_1.iew.lsq.thread.0.squashedLoads       333312                       # Number of loads squashed
system.switch_cpus_1.iew.lsq.thread.0.squashedStores       289432                       # Number of stores squashed
system.switch_cpus_1.iew.memOrderViolationEvents         5270                       # Number of memory order violations
system.switch_cpus_1.iew.predictedNotTakenIncorrect         9516                       # Number of branches that were predicted not taken incorrectly
system.switch_cpus_1.iew.predictedTakenIncorrect        69437                       # Number of branches that were predicted taken incorrectly
system.switch_cpus_1.ipc                     1.422890                       # IPC: Instructions Per Cycle
system.switch_cpus_1.ipc_total               1.422890                       # IPC: Total IPC of All Threads
system.switch_cpus_1.iq.ISSUE:FU_type_0::No_OpClass            0      0.00%      0.00% # Type of FU issued
system.switch_cpus_1.iq.ISSUE:FU_type_0::IntAlu      8016488     69.15%     69.15% # Type of FU issued
system.switch_cpus_1.iq.ISSUE:FU_type_0::IntMult            0      0.00%     69.15% # Type of FU issued
system.switch_cpus_1.iq.ISSUE:FU_type_0::IntDiv            0      0.00%     69.15% # Type of FU issued
system.switch_cpus_1.iq.ISSUE:FU_type_0::FloatAdd            0      0.00%     69.15% # Type of FU issued
system.switch_cpus_1.iq.ISSUE:FU_type_0::FloatCmp            0      0.00%     69.15% # Type of FU issued
system.switch_cpus_1.iq.ISSUE:FU_type_0::FloatCvt            0      0.00%     69.15% # Type of FU issued
system.switch_cpus_1.iq.ISSUE:FU_type_0::FloatMult            0      0.00%     69.15% # Type of FU issued
system.switch_cpus_1.iq.ISSUE:FU_type_0::FloatDiv            0      0.00%     69.15% # Type of FU issued
system.switch_cpus_1.iq.ISSUE:FU_type_0::FloatSqrt            0      0.00%     69.15% # Type of FU issued
system.switch_cpus_1.iq.ISSUE:FU_type_0::MemRead      1840644     15.88%     85.03% # Type of FU issued
system.switch_cpus_1.iq.ISSUE:FU_type_0::MemWrite      1735686     14.97%    100.00% # Type of FU issued
system.switch_cpus_1.iq.ISSUE:FU_type_0::IprAccess            0      0.00%    100.00% # Type of FU issued
system.switch_cpus_1.iq.ISSUE:FU_type_0::InstPrefetch            0      0.00%    100.00% # Type of FU issued
system.switch_cpus_1.iq.ISSUE:FU_type_0::total     11592818                       # Type of FU issued
system.switch_cpus_1.iq.ISSUE:fu_busy_cnt         9811                       # FU busy when requested
system.switch_cpus_1.iq.ISSUE:fu_busy_rate     0.000846                       # FU busy rate (busy events/executed inst)
system.switch_cpus_1.iq.ISSUE:fu_full::No_OpClass            0      0.00%      0.00% # attempts to use FU when none available
system.switch_cpus_1.iq.ISSUE:fu_full::IntAlu         9811    100.00%    100.00% # attempts to use FU when none available
system.switch_cpus_1.iq.ISSUE:fu_full::IntMult            0      0.00%    100.00% # attempts to use FU when none available
system.switch_cpus_1.iq.ISSUE:fu_full::IntDiv            0      0.00%    100.00% # attempts to use FU when none available
system.switch_cpus_1.iq.ISSUE:fu_full::FloatAdd            0      0.00%    100.00% # attempts to use FU when none available
system.switch_cpus_1.iq.ISSUE:fu_full::FloatCmp            0      0.00%    100.00% # attempts to use FU when none available
system.switch_cpus_1.iq.ISSUE:fu_full::FloatCvt            0      0.00%    100.00% # attempts to use FU when none available
system.switch_cpus_1.iq.ISSUE:fu_full::FloatMult            0      0.00%    100.00% # attempts to use FU when none available
system.switch_cpus_1.iq.ISSUE:fu_full::FloatDiv            0      0.00%    100.00% # attempts to use FU when none available
system.switch_cpus_1.iq.ISSUE:fu_full::FloatSqrt            0      0.00%    100.00% # attempts to use FU when none available
system.switch_cpus_1.iq.ISSUE:fu_full::MemRead            0      0.00%    100.00% # attempts to use FU when none available
system.switch_cpus_1.iq.ISSUE:fu_full::MemWrite            0      0.00%    100.00% # attempts to use FU when none available
system.switch_cpus_1.iq.ISSUE:fu_full::IprAccess            0      0.00%    100.00% # attempts to use FU when none available
system.switch_cpus_1.iq.ISSUE:fu_full::InstPrefetch            0      0.00%    100.00% # attempts to use FU when none available
system.switch_cpus_1.iq.ISSUE:issued_per_cycle::samples      7025261                       # Number of insts issued each cycle
system.switch_cpus_1.iq.ISSUE:issued_per_cycle::mean     1.650162                       # Number of insts issued each cycle
system.switch_cpus_1.iq.ISSUE:issued_per_cycle::stdev     1.285597                       # Number of insts issued each cycle
system.switch_cpus_1.iq.ISSUE:issued_per_cycle::underflows            0      0.00%      0.00% # Number of insts issued each cycle
system.switch_cpus_1.iq.ISSUE:issued_per_cycle::0      1165398     16.59%     16.59% # Number of insts issued each cycle
system.switch_cpus_1.iq.ISSUE:issued_per_cycle::1      2474555     35.22%     51.81% # Number of insts issued each cycle
system.switch_cpus_1.iq.ISSUE:issued_per_cycle::2      2275351     32.39%     84.20% # Number of insts issued each cycle
system.switch_cpus_1.iq.ISSUE:issued_per_cycle::3        78082      1.11%     85.31% # Number of insts issued each cycle
system.switch_cpus_1.iq.ISSUE:issued_per_cycle::4       866702     12.34%     97.65% # Number of insts issued each cycle
system.switch_cpus_1.iq.ISSUE:issued_per_cycle::5       133321      1.90%     99.55% # Number of insts issued each cycle
system.switch_cpus_1.iq.ISSUE:issued_per_cycle::6        23662      0.34%     99.88% # Number of insts issued each cycle
system.switch_cpus_1.iq.ISSUE:issued_per_cycle::7         7590      0.11%     99.99% # Number of insts issued each cycle
system.switch_cpus_1.iq.ISSUE:issued_per_cycle::8          600      0.01%    100.00% # Number of insts issued each cycle
system.switch_cpus_1.iq.ISSUE:issued_per_cycle::overflows            0      0.00%    100.00% # Number of insts issued each cycle
system.switch_cpus_1.iq.ISSUE:issued_per_cycle::min_value            0                       # Number of insts issued each cycle
system.switch_cpus_1.iq.ISSUE:issued_per_cycle::max_value            8                       # Number of insts issued each cycle
system.switch_cpus_1.iq.ISSUE:issued_per_cycle::total      7025261                       # Number of insts issued each cycle
system.switch_cpus_1.iq.ISSUE:rate           1.649531                       # Inst issue rate
system.switch_cpus_1.iq.iqInstsAdded         12056163                       # Number of instructions added to the IQ (excludes non-spec)
system.switch_cpus_1.iq.iqInstsIssued        11592818                       # Number of instructions issued
system.switch_cpus_1.iq.iqSquashedInstsExamined      1930995                       # Number of squashed instructions iterated over during squash; mainly for profiling
system.switch_cpus_1.iq.iqSquashedInstsIssued          859                       # Number of squashed instructions issued
system.switch_cpus_1.iq.iqSquashedOperandsExamined       856550                       # Number of squashed operands that are examined and possibly removed from graph
system.switch_cpus_1.itb.data_accesses              0                       # DTB accesses
system.switch_cpus_1.itb.data_acv                   0                       # DTB access violations
system.switch_cpus_1.itb.data_hits                  0                       # DTB hits
system.switch_cpus_1.itb.data_misses                0                       # DTB misses
system.switch_cpus_1.itb.fetch_accesses       1885241                       # ITB accesses
system.switch_cpus_1.itb.fetch_acv                  0                       # ITB acv
system.switch_cpus_1.itb.fetch_hits           1885240                       # ITB hits
system.switch_cpus_1.itb.fetch_misses               1                       # ITB misses
system.switch_cpus_1.itb.read_accesses              0                       # DTB read accesses
system.switch_cpus_1.itb.read_acv                   0                       # DTB read access violations
system.switch_cpus_1.itb.read_hits                  0                       # DTB read hits
system.switch_cpus_1.itb.read_misses                0                       # DTB read misses
system.switch_cpus_1.itb.write_accesses             0                       # DTB write accesses
system.switch_cpus_1.itb.write_acv                  0                       # DTB write access violations
system.switch_cpus_1.itb.write_hits                 0                       # DTB write hits
system.switch_cpus_1.itb.write_misses               0                       # DTB write misses
system.switch_cpus_1.memDep0.conflictingLoads       716224                       # Number of conflicting loads.
system.switch_cpus_1.memDep0.conflictingStores       663127                       # Number of conflicting stores.
system.switch_cpus_1.memDep0.insertedLoads      1905401                       # Number of loads inserted to the mem dependence unit.
system.switch_cpus_1.memDep0.insertedStores      1786666                       # Number of stores inserted to the mem dependence unit.
system.switch_cpus_1.numCycles                7027949                       # number of cpu cycles simulated
system.switch_cpus_1.rename.RENAME:BlockCycles        11733                       # Number of cycles rename is blocking
system.switch_cpus_1.rename.RENAME:CommittedMaps      6961898                       # Number of HB maps that are committed
system.switch_cpus_1.rename.RENAME:IQFullEvents           92                       # Number of times rename has blocked due to IQ full
system.switch_cpus_1.rename.RENAME:IdleCycles      3803061                       # Number of cycles rename is idle
system.switch_cpus_1.rename.RENAME:LSQFullEvents         4836                       # Number of times rename has blocked due to LSQ full
system.switch_cpus_1.rename.RENAME:ROBFullEvents          382                       # Number of times rename has blocked due to ROB full
system.switch_cpus_1.rename.RENAME:RenameLookups     18155923                       # Number of register rename lookups that rename has made
system.switch_cpus_1.rename.RENAME:RenamedInsts     12893183                       # Number of instructions processed by rename
system.switch_cpus_1.rename.RENAME:RenamedOperands      8733916                       # Number of destination operands rename has renamed
system.switch_cpus_1.rename.RENAME:RunCycles      2906922                       # Number of cycles rename is running
system.switch_cpus_1.rename.RENAME:SquashCycles       298323                       # Number of cycles rename is squashing
system.switch_cpus_1.rename.RENAME:UnblockCycles         5221                       # Number of cycles rename is unblocking
system.switch_cpus_1.rename.RENAME:UndoneMaps      1772009                       # Number of HB maps that are undone due to squashing
system.switch_cpus_1.rename.RENAME:serializeStallCycles            0                       # count of cycles rename stalled for serializing inst
system.switch_cpus_1.rename.RENAME:serializingInsts            0                       # count of serializing insts renamed
system.switch_cpus_1.rename.RENAME:skidInsts         9869                       # count of insts added to the skid buffer
system.switch_cpus_1.rename.RENAME:tempSerializingInsts            0                       # count of temporary serializing insts renamed
system.switch_cpus_1.timesIdled                   164                       # Number of times that the entire CPU went into an idle state and unscheduled itself

---------- End Simulation Statistics   ----------
