
---------- Begin Simulation Statistics ----------
host_inst_rate                                 113850                       # Simulator instruction rate (inst/s)
host_mem_usage                                 333800                       # Number of bytes of host memory used
host_seconds                                   175.67                       # Real time elapsed on the host
host_tick_rate                             1629828549                       # Simulator tick rate (ticks/s)
sim_freq                                 1000000000000                       # Frequency of simulated ticks
sim_insts                                    20000003                       # Number of instructions simulated
sim_seconds                                  0.286312                       # Number of seconds simulated
sim_ticks                                286312488000                       # Number of ticks simulated
system.cpu.dcache.ReadReq_accesses            5607032                       # number of ReadReq accesses(hits+misses)
system.cpu.dcache.ReadReq_avg_miss_latency 106963.948812                       # average ReadReq miss latency
system.cpu.dcache.ReadReq_avg_mshr_miss_latency 103741.716515                       # average ReadReq mshr miss latency
system.cpu.dcache.ReadReq_hits                2081531                       # number of ReadReq hits
system.cpu.dcache.ReadReq_miss_latency   377101508500                       # number of ReadReq miss cycles
system.cpu.dcache.ReadReq_miss_rate          0.628764                       # miss rate for ReadReq accesses
system.cpu.dcache.ReadReq_misses              3525501                       # number of ReadReq misses
system.cpu.dcache.ReadReq_mshr_hits              4459                       # number of ReadReq MSHR hits
system.cpu.dcache.ReadReq_mshr_miss_latency 365278941000                       # number of ReadReq MSHR miss cycles
system.cpu.dcache.ReadReq_mshr_miss_rate     0.627969                       # mshr miss rate for ReadReq accesses
system.cpu.dcache.ReadReq_mshr_misses         3521042                       # number of ReadReq MSHR misses
system.cpu.dcache.WriteReq_accesses            293301                       # number of WriteReq accesses(hits+misses)
system.cpu.dcache.WriteReq_avg_miss_latency 121579.026662                       # average WriteReq miss latency
system.cpu.dcache.WriteReq_avg_mshr_miss_latency 117785.772198                       # average WriteReq mshr miss latency
system.cpu.dcache.WriteReq_hits                285462                       # number of WriteReq hits
system.cpu.dcache.WriteReq_miss_latency     953057990                       # number of WriteReq miss cycles
system.cpu.dcache.WriteReq_miss_rate         0.026727                       # miss rate for WriteReq accesses
system.cpu.dcache.WriteReq_misses                7839                       # number of WriteReq misses
system.cpu.dcache.WriteReq_mshr_hits             2940                       # number of WriteReq MSHR hits
system.cpu.dcache.WriteReq_mshr_miss_latency    577032498                       # number of WriteReq MSHR miss cycles
system.cpu.dcache.WriteReq_mshr_miss_rate     0.016703                       # mshr miss rate for WriteReq accesses
system.cpu.dcache.WriteReq_mshr_misses           4899                       # number of WriteReq MSHR misses
system.cpu.dcache.avg_blocked_cycles::no_mshrs 22408.909091                       # average number of cycles each access was blocked
system.cpu.dcache.avg_blocked_cycles::no_targets 116234.521576                       # average number of cycles each access was blocked
system.cpu.dcache.avg_refs                   0.671839                       # Average number of references to valid blocks.
system.cpu.dcache.blocked::no_mshrs                11                       # number of cycles access was blocked
system.cpu.dcache.blocked::no_targets             533                       # number of cycles access was blocked
system.cpu.dcache.blocked_cycles::no_mshrs       246498                       # number of cycles access was blocked
system.cpu.dcache.blocked_cycles::no_targets     61953000                       # number of cycles access was blocked
system.cpu.dcache.cache_copies                      0                       # number of cache copies performed
system.cpu.dcache.demand_accesses             5900333                       # number of demand (read+write) accesses
system.cpu.dcache.demand_avg_miss_latency 106996.373542                       # average overall miss latency
system.cpu.dcache.demand_avg_mshr_miss_latency 103761.229555                       # average overall mshr miss latency
system.cpu.dcache.demand_hits                 2366993                       # number of demand (read+write) hits
system.cpu.dcache.demand_miss_latency    378054566490                       # number of demand (read+write) miss cycles
system.cpu.dcache.demand_miss_rate           0.598837                       # miss rate for demand accesses
system.cpu.dcache.demand_misses               3533340                       # number of demand (read+write) misses
system.cpu.dcache.demand_mshr_hits               7399                       # number of demand (read+write) MSHR hits
system.cpu.dcache.demand_mshr_miss_latency 365855973498                       # number of demand (read+write) MSHR miss cycles
system.cpu.dcache.demand_mshr_miss_rate      0.597583                       # mshr miss rate for demand accesses
system.cpu.dcache.demand_mshr_misses          3525941                       # number of demand (read+write) MSHR misses
system.cpu.dcache.fast_writes                       0                       # number of fast writes performed
system.cpu.dcache.mshr_cap_events                   0                       # number of times MSHR cap was activated
system.cpu.dcache.no_allocate_misses                0                       # Number of misses that were no-allocate
system.cpu.dcache.occ_%::0                   0.619056                       # Average percentage of cache occupancy
system.cpu.dcache.occ_blocks::0            633.913259                       # Average occupied blocks per context
system.cpu.dcache.overall_accesses            5900333                       # number of overall (read+write) accesses
system.cpu.dcache.overall_avg_miss_latency 106996.373542                       # average overall miss latency
system.cpu.dcache.overall_avg_mshr_miss_latency 103761.229555                       # average overall mshr miss latency
system.cpu.dcache.overall_avg_mshr_uncacheable_latency     no_value                       # average overall mshr uncacheable latency
system.cpu.dcache.overall_hits                2366993                       # number of overall hits
system.cpu.dcache.overall_miss_latency   378054566490                       # number of overall miss cycles
system.cpu.dcache.overall_miss_rate          0.598837                       # miss rate for overall accesses
system.cpu.dcache.overall_misses              3533340                       # number of overall misses
system.cpu.dcache.overall_mshr_hits              7399                       # number of overall MSHR hits
system.cpu.dcache.overall_mshr_miss_latency 365855973498                       # number of overall MSHR miss cycles
system.cpu.dcache.overall_mshr_miss_rate     0.597583                       # mshr miss rate for overall accesses
system.cpu.dcache.overall_mshr_misses         3525941                       # number of overall MSHR misses
system.cpu.dcache.overall_mshr_uncacheable_latency            0                       # number of overall MSHR uncacheable cycles
system.cpu.dcache.overall_mshr_uncacheable_misses            0                       # number of overall MSHR uncacheable misses
system.cpu.dcache.prefetch_accuracy          no_value                       # ratio of good prefetches to total prefetches
system.cpu.dcache.prefetch_hits                     0                       # number of prefetched blocks that were accessed
system.cpu.dcache.replacements                3524218                       # number of replacements
system.cpu.dcache.sampled_refs                3525069                       # Sample count of references to valid blocks.
system.cpu.dcache.soft_prefetch_mshr_full            0                       # number of mshr full events for SW prefetching instrutions
system.cpu.dcache.tagsinuse                633.913259                       # Cycle average of tags in use
system.cpu.dcache.total_refs                  2368279                       # Total number of references to valid blocks.
system.cpu.dcache.warmup_cycle                      0                       # Cycle when the warmup percentage was hit.
system.cpu.dcache.writebacks                     4506                       # number of writebacks
system.cpu.dtb.data_accesses                        0                       # DTB accesses
system.cpu.dtb.data_acv                             0                       # DTB access violations
system.cpu.dtb.data_hits                            0                       # DTB hits
system.cpu.dtb.data_misses                          0                       # DTB misses
system.cpu.dtb.fetch_accesses                       0                       # ITB accesses
system.cpu.dtb.fetch_acv                            0                       # ITB acv
system.cpu.dtb.fetch_hits                           0                       # ITB hits
system.cpu.dtb.fetch_misses                         0                       # ITB misses
system.cpu.dtb.read_accesses                        0                       # DTB read accesses
system.cpu.dtb.read_acv                             0                       # DTB read access violations
system.cpu.dtb.read_hits                            0                       # DTB read hits
system.cpu.dtb.read_misses                          0                       # DTB read misses
system.cpu.dtb.write_accesses                       0                       # DTB write accesses
system.cpu.dtb.write_acv                            0                       # DTB write access violations
system.cpu.dtb.write_hits                           0                       # DTB write hits
system.cpu.dtb.write_misses                         0                       # DTB write misses
system.cpu.icache.ReadReq_accesses           13508592                       # number of ReadReq accesses(hits+misses)
system.cpu.icache.ReadReq_avg_miss_latency 56683.185236                       # average ReadReq miss latency
system.cpu.icache.ReadReq_avg_mshr_miss_latency 52697.348045                       # average ReadReq mshr miss latency
system.cpu.icache.ReadReq_hits               13502740                       # number of ReadReq hits
system.cpu.icache.ReadReq_miss_latency      331710000                       # number of ReadReq miss cycles
system.cpu.icache.ReadReq_miss_rate          0.000433                       # miss rate for ReadReq accesses
system.cpu.icache.ReadReq_misses                 5852                       # number of ReadReq misses
system.cpu.icache.ReadReq_mshr_hits               685                       # number of ReadReq MSHR hits
system.cpu.icache.ReadReq_mshr_miss_latency    272234500                       # number of ReadReq MSHR miss cycles
system.cpu.icache.ReadReq_mshr_miss_rate     0.000382                       # mshr miss rate for ReadReq accesses
system.cpu.icache.ReadReq_mshr_misses            5166                       # number of ReadReq MSHR misses
system.cpu.icache.avg_blocked_cycles::no_mshrs     no_value                       # average number of cycles each access was blocked
system.cpu.icache.avg_blocked_cycles::no_targets     no_value                       # average number of cycles each access was blocked
system.cpu.icache.avg_refs                2613.264951                       # Average number of references to valid blocks.
system.cpu.icache.blocked::no_mshrs                 0                       # number of cycles access was blocked
system.cpu.icache.blocked::no_targets               0                       # number of cycles access was blocked
system.cpu.icache.blocked_cycles::no_mshrs            0                       # number of cycles access was blocked
system.cpu.icache.blocked_cycles::no_targets            0                       # number of cycles access was blocked
system.cpu.icache.cache_copies                      0                       # number of cache copies performed
system.cpu.icache.demand_accesses            13508592                       # number of demand (read+write) accesses
system.cpu.icache.demand_avg_miss_latency 56683.185236                       # average overall miss latency
system.cpu.icache.demand_avg_mshr_miss_latency 52697.348045                       # average overall mshr miss latency
system.cpu.icache.demand_hits                13502740                       # number of demand (read+write) hits
system.cpu.icache.demand_miss_latency       331710000                       # number of demand (read+write) miss cycles
system.cpu.icache.demand_miss_rate           0.000433                       # miss rate for demand accesses
system.cpu.icache.demand_misses                  5852                       # number of demand (read+write) misses
system.cpu.icache.demand_mshr_hits                685                       # number of demand (read+write) MSHR hits
system.cpu.icache.demand_mshr_miss_latency    272234500                       # number of demand (read+write) MSHR miss cycles
system.cpu.icache.demand_mshr_miss_rate      0.000382                       # mshr miss rate for demand accesses
system.cpu.icache.demand_mshr_misses             5166                       # number of demand (read+write) MSHR misses
system.cpu.icache.fast_writes                       0                       # number of fast writes performed
system.cpu.icache.mshr_cap_events                   0                       # number of times MSHR cap was activated
system.cpu.icache.no_allocate_misses                0                       # Number of misses that were no-allocate
system.cpu.icache.occ_%::0                   0.368168                       # Average percentage of cache occupancy
system.cpu.icache.occ_blocks::0            188.501850                       # Average occupied blocks per context
system.cpu.icache.overall_accesses           13508592                       # number of overall (read+write) accesses
system.cpu.icache.overall_avg_miss_latency 56683.185236                       # average overall miss latency
system.cpu.icache.overall_avg_mshr_miss_latency 52697.348045                       # average overall mshr miss latency
system.cpu.icache.overall_avg_mshr_uncacheable_latency     no_value                       # average overall mshr uncacheable latency
system.cpu.icache.overall_hits               13502740                       # number of overall hits
system.cpu.icache.overall_miss_latency      331710000                       # number of overall miss cycles
system.cpu.icache.overall_miss_rate          0.000433                       # miss rate for overall accesses
system.cpu.icache.overall_misses                 5852                       # number of overall misses
system.cpu.icache.overall_mshr_hits               685                       # number of overall MSHR hits
system.cpu.icache.overall_mshr_miss_latency    272234500                       # number of overall MSHR miss cycles
system.cpu.icache.overall_mshr_miss_rate     0.000382                       # mshr miss rate for overall accesses
system.cpu.icache.overall_mshr_misses            5166                       # number of overall MSHR misses
system.cpu.icache.overall_mshr_uncacheable_latency            0                       # number of overall MSHR uncacheable cycles
system.cpu.icache.overall_mshr_uncacheable_misses            0                       # number of overall MSHR uncacheable misses
system.cpu.icache.prefetch_accuracy          no_value                       # ratio of good prefetches to total prefetches
system.cpu.icache.prefetch_hits                     0                       # number of prefetched blocks that were accessed
system.cpu.icache.replacements                   4957                       # number of replacements
system.cpu.icache.sampled_refs                   5167                       # Sample count of references to valid blocks.
system.cpu.icache.soft_prefetch_mshr_full            0                       # number of mshr full events for SW prefetching instrutions
system.cpu.icache.tagsinuse                188.501850                       # Cycle average of tags in use
system.cpu.icache.total_refs                 13502740                       # Total number of references to valid blocks.
system.cpu.icache.warmup_cycle                      0                       # Cycle when the warmup percentage was hit.
system.cpu.icache.writebacks                        0                       # number of writebacks
system.cpu.idle_fraction                            0                       # Percentage of idle cycles
system.cpu.itb.data_accesses                        0                       # DTB accesses
system.cpu.itb.data_acv                             0                       # DTB access violations
system.cpu.itb.data_hits                            0                       # DTB hits
system.cpu.itb.data_misses                          0                       # DTB misses
system.cpu.itb.fetch_accesses                       2                       # ITB accesses
system.cpu.itb.fetch_acv                            0                       # ITB acv
system.cpu.itb.fetch_hits                           2                       # ITB hits
system.cpu.itb.fetch_misses                         0                       # ITB misses
system.cpu.itb.read_accesses                        0                       # DTB read accesses
system.cpu.itb.read_acv                             0                       # DTB read access violations
system.cpu.itb.read_hits                            0                       # DTB read hits
system.cpu.itb.read_misses                          0                       # DTB read misses
system.cpu.itb.write_accesses                       0                       # DTB write accesses
system.cpu.itb.write_acv                            0                       # DTB write access violations
system.cpu.itb.write_hits                           0                       # DTB write hits
system.cpu.itb.write_misses                         0                       # DTB write misses
system.cpu.not_idle_fraction                        1                       # Percentage of non-idle cycles
system.cpu.numCycles                                2                       # number of cpu cycles simulated
system.cpu.num_insts                                2                       # Number of instructions executed
system.cpu.num_refs                                 0                       # Number of memory references
system.cpu.workload.PROG:num_syscalls               3                       # Number of system calls
system.l2.HardPFReq_avg_mshr_miss_latency 76072.475053                       # average HardPFReq mshr miss latency
system.l2.HardPFReq_mshr_miss_latency    610720860231                       # number of HardPFReq MSHR miss cycles
system.l2.HardPFReq_mshr_miss_rate                inf                       # mshr miss rate for HardPFReq accesses
system.l2.HardPFReq_mshr_misses               8028145                       # number of HardPFReq MSHR misses
system.l2.ReadExReq_accesses                     4028                       # number of ReadExReq accesses(hits+misses)
system.l2.ReadExReq_avg_miss_latency     119699.243215                       # average ReadExReq miss latency
system.l2.ReadExReq_avg_mshr_miss_latency 104810.240964                       # average ReadExReq mshr miss latency
system.l2.ReadExReq_hits                          196                       # number of ReadExReq hits
system.l2.ReadExReq_miss_latency            458687500                       # number of ReadExReq miss cycles
system.l2.ReadExReq_miss_rate                0.951341                       # miss rate for ReadExReq accesses
system.l2.ReadExReq_misses                       3832                       # number of ReadExReq misses
system.l2.ReadExReq_mshr_hits                      14                       # number of ReadExReq MSHR hits
system.l2.ReadExReq_mshr_miss_latency       400165500                       # number of ReadExReq MSHR miss cycles
system.l2.ReadExReq_mshr_miss_rate           0.947865                       # mshr miss rate for ReadExReq accesses
system.l2.ReadExReq_mshr_misses                  3818                       # number of ReadExReq MSHR misses
system.l2.ReadReq_accesses                    3526209                       # number of ReadReq accesses(hits+misses)
system.l2.ReadReq_avg_miss_latency       102442.009906                       # average ReadReq miss latency
system.l2.ReadReq_avg_mshr_miss_latency  106017.708874                       # average ReadReq mshr miss latency
system.l2.ReadReq_hits                           3547                       # number of ReadReq hits
system.l2.ReadReq_miss_latency           360868575500                       # number of ReadReq miss cycles
system.l2.ReadReq_miss_rate                  0.998994                       # miss rate for ReadReq accesses
system.l2.ReadReq_misses                      3522662                       # number of ReadReq misses
system.l2.ReadReq_mshr_hits                    852672                       # number of ReadReq MSHR hits
system.l2.ReadReq_mshr_miss_latency      283066116500                       # number of ReadReq MSHR miss cycles
system.l2.ReadReq_mshr_miss_rate             0.757184                       # mshr miss rate for ReadReq accesses
system.l2.ReadReq_mshr_misses                 2669989                       # number of ReadReq MSHR misses
system.l2.UpgradeReq_accesses                     933                       # number of UpgradeReq accesses(hits+misses)
system.l2.UpgradeReq_avg_miss_latency    111405.144695                       # average UpgradeReq miss latency
system.l2.UpgradeReq_avg_mshr_miss_latency 96332.797428                       # average UpgradeReq mshr miss latency
system.l2.UpgradeReq_miss_latency           103941000                       # number of UpgradeReq miss cycles
system.l2.UpgradeReq_miss_rate                      1                       # miss rate for UpgradeReq accesses
system.l2.UpgradeReq_misses                       933                       # number of UpgradeReq misses
system.l2.UpgradeReq_mshr_miss_latency       89878500                       # number of UpgradeReq MSHR miss cycles
system.l2.UpgradeReq_mshr_miss_rate                 1                       # mshr miss rate for UpgradeReq accesses
system.l2.UpgradeReq_mshr_misses                  933                       # number of UpgradeReq MSHR misses
system.l2.Writeback_accesses                     4506                       # number of Writeback accesses(hits+misses)
system.l2.Writeback_hits                         4506                       # number of Writeback hits
system.l2.avg_blocked_cycles::no_mshrs              0                       # average number of cycles each access was blocked
system.l2.avg_blocked_cycles::no_targets     no_value                       # average number of cycles each access was blocked
system.l2.avg_refs                           0.000525                       # Average number of references to valid blocks.
system.l2.blocked::no_mshrs                         2                       # number of cycles access was blocked
system.l2.blocked::no_targets                       0                       # number of cycles access was blocked
system.l2.blocked_cycles::no_mshrs                  0                       # number of cycles access was blocked
system.l2.blocked_cycles::no_targets                0                       # number of cycles access was blocked
system.l2.cache_copies                              0                       # number of cache copies performed
system.l2.demand_accesses                     3530237                       # number of demand (read+write) accesses
system.l2.demand_avg_miss_latency        102460.762162                       # average overall miss latency
system.l2.demand_avg_mshr_miss_latency   106015.984699                       # average overall mshr miss latency
system.l2.demand_hits                            3743                       # number of demand (read+write) hits
system.l2.demand_miss_latency            361327263000                       # number of demand (read+write) miss cycles
system.l2.demand_miss_rate                   0.998940                       # miss rate for demand accesses
system.l2.demand_misses                       3526494                       # number of demand (read+write) misses
system.l2.demand_mshr_hits                     852686                       # number of demand (read+write) MSHR hits
system.l2.demand_mshr_miss_latency       283466282000                       # number of demand (read+write) MSHR miss cycles
system.l2.demand_mshr_miss_rate              0.757402                       # mshr miss rate for demand accesses
system.l2.demand_mshr_misses                  2673807                       # number of demand (read+write) MSHR misses
system.l2.fast_writes                               0                       # number of fast writes performed
system.l2.mshr_cap_events                           0                       # number of times MSHR cap was activated
system.l2.no_allocate_misses                        0                       # Number of misses that were no-allocate
system.l2.occ_%::0                           0.820510                       # Average percentage of cache occupancy
system.l2.occ_%::1                           0.000291                       # Average percentage of cache occupancy
system.l2.occ_blocks::0                  13443.231498                       # Average occupied blocks per context
system.l2.occ_blocks::1                      4.773238                       # Average occupied blocks per context
system.l2.overall_accesses                    3530237                       # number of overall (read+write) accesses
system.l2.overall_avg_miss_latency       102460.762162                       # average overall miss latency
system.l2.overall_avg_mshr_miss_latency  83553.649113                       # average overall mshr miss latency
system.l2.overall_avg_mshr_uncacheable_latency     no_value                       # average overall mshr uncacheable latency
system.l2.overall_hits                           3743                       # number of overall hits
system.l2.overall_miss_latency           361327263000                       # number of overall miss cycles
system.l2.overall_miss_rate                  0.998940                       # miss rate for overall accesses
system.l2.overall_misses                      3526494                       # number of overall misses
system.l2.overall_mshr_hits                    852686                       # number of overall MSHR hits
system.l2.overall_mshr_miss_latency      894187142231                       # number of overall MSHR miss cycles
system.l2.overall_mshr_miss_rate             3.031511                       # mshr miss rate for overall accesses
system.l2.overall_mshr_misses                10701952                       # number of overall MSHR misses
system.l2.overall_mshr_uncacheable_latency            0                       # number of overall MSHR uncacheable cycles
system.l2.overall_mshr_uncacheable_misses            0                       # number of overall MSHR uncacheable misses
system.l2.prefetch_accuracy                  0.000366                       # ratio of good prefetches to total prefetches
system.l2.prefetch_hits                          2940                       # number of prefetched blocks that were accessed
system.l2.prefetcher.num_hwpf_already_in_prefetcher      3149382                       # number of hwpf that were already in the prefetch queue
system.l2.prefetcher.num_hwpf_evicted          152968                       # number of hwpf removed due to no buffer left
system.l2.prefetcher.num_hwpf_identified     12243177                       # number of hwpf identified
system.l2.prefetcher.num_hwpf_issued          8033961                       # number of hwpf issued
system.l2.prefetcher.num_hwpf_removed_MSHR_hit       906773                       # number of hwpf removed because MSHR allocated
system.l2.prefetcher.num_hwpf_span_page             0                       # number of hwpf spanning a virtual page
system.l2.prefetcher.num_hwpf_squashed_from_miss            0                       # number of hwpf that got squashed due to a miss aborting calculation time
system.l2.replacements                       10686014                       # number of replacements
system.l2.sampled_refs                       10700490                       # Sample count of references to valid blocks.
system.l2.soft_prefetch_mshr_full                   0                       # number of mshr full events for SW prefetching instrutions
system.l2.tagsinuse                      13448.004736                       # Cycle average of tags in use
system.l2.total_refs                             5616                       # Total number of references to valid blocks.
system.l2.warmup_cycle                              0                       # Cycle when the warmup percentage was hit.
system.l2.writebacks                             4498                       # number of writebacks
system.switch_cpus.dtb.data_accesses          2832022                       # DTB accesses
system.switch_cpus.dtb.data_acv                     0                       # DTB access violations
system.switch_cpus.dtb.data_hits              2558233                       # DTB hits
system.switch_cpus.dtb.data_misses             273789                       # DTB misses
system.switch_cpus.dtb.fetch_accesses               0                       # ITB accesses
system.switch_cpus.dtb.fetch_acv                    0                       # ITB acv
system.switch_cpus.dtb.fetch_hits                   0                       # ITB hits
system.switch_cpus.dtb.fetch_misses                 0                       # ITB misses
system.switch_cpus.dtb.read_accesses          2682476                       # DTB read accesses
system.switch_cpus.dtb.read_acv                     0                       # DTB read access violations
system.switch_cpus.dtb.read_hits              2409028                       # DTB read hits
system.switch_cpus.dtb.read_misses             273448                       # DTB read misses
system.switch_cpus.dtb.write_accesses          149546                       # DTB write accesses
system.switch_cpus.dtb.write_acv                    0                       # DTB write access violations
system.switch_cpus.dtb.write_hits              149205                       # DTB write hits
system.switch_cpus.dtb.write_misses               341                       # DTB write misses
system.switch_cpus.idle_fraction                    1                       # Percentage of idle cycles
system.switch_cpus.itb.data_accesses                0                       # DTB accesses
system.switch_cpus.itb.data_acv                     0                       # DTB access violations
system.switch_cpus.itb.data_hits                    0                       # DTB hits
system.switch_cpus.itb.data_misses                  0                       # DTB misses
system.switch_cpus.itb.fetch_accesses        10273803                       # ITB accesses
system.switch_cpus.itb.fetch_acv                    0                       # ITB acv
system.switch_cpus.itb.fetch_hits            10273790                       # ITB hits
system.switch_cpus.itb.fetch_misses                13                       # ITB misses
system.switch_cpus.itb.read_accesses                0                       # DTB read accesses
system.switch_cpus.itb.read_acv                     0                       # DTB read access violations
system.switch_cpus.itb.read_hits                    0                       # DTB read hits
system.switch_cpus.itb.read_misses                  0                       # DTB read misses
system.switch_cpus.itb.write_accesses               0                       # DTB write accesses
system.switch_cpus.itb.write_acv                    0                       # DTB write access violations
system.switch_cpus.itb.write_hits                   0                       # DTB write hits
system.switch_cpus.itb.write_misses                 0                       # DTB write misses
system.switch_cpus.not_idle_fraction                0                       # Percentage of non-idle cycles
system.switch_cpus.numCycles                294221778                       # number of cpu cycles simulated
system.switch_cpus.num_insts                 10000001                       # Number of instructions executed
system.switch_cpus.num_refs                   2837031                       # Number of memory references
system.switch_cpus_1.BPredUnit.BTBCorrect            0                       # Number of correct BTB predictions (this stat may not work properly.
system.switch_cpus_1.BPredUnit.BTBHits        4548290                       # Number of BTB hits
system.switch_cpus_1.BPredUnit.BTBLookups      4738198                       # Number of BTB lookups
system.switch_cpus_1.BPredUnit.RASInCorrect           30                       # Number of incorrect RAS predictions.
system.switch_cpus_1.BPredUnit.condIncorrect        20015                       # Number of conditional branches incorrect
system.switch_cpus_1.BPredUnit.condPredicted      5240230                       # Number of conditional branches predicted
system.switch_cpus_1.BPredUnit.lookups        5386207                       # Number of BP lookups
system.switch_cpus_1.BPredUnit.usedRAS          53460                       # Number of times the RAS was used to get a target.
system.switch_cpus_1.commit.COM:branches      1639812                       # Number of branches committed
system.switch_cpus_1.commit.COM:bw_lim_events        50525                       # number cycles where commit BW limit reached
system.switch_cpus_1.commit.COM:bw_limited            0                       # number of insts not committed due to BW limits
system.switch_cpus_1.commit.COM:committed_per_cycle::samples     51615980                       # Number of insts commited each cycle
system.switch_cpus_1.commit.COM:committed_per_cycle::mean     0.199817                       # Number of insts commited each cycle
system.switch_cpus_1.commit.COM:committed_per_cycle::stdev     0.637902                       # Number of insts commited each cycle
system.switch_cpus_1.commit.COM:committed_per_cycle::underflows            0      0.00%      0.00% # Number of insts commited each cycle
system.switch_cpus_1.commit.COM:committed_per_cycle::0     44896902     86.98%     86.98% # Number of insts commited each cycle
system.switch_cpus_1.commit.COM:committed_per_cycle::1      4286412      8.30%     95.29% # Number of insts commited each cycle
system.switch_cpus_1.commit.COM:committed_per_cycle::2      2007174      3.89%     99.18% # Number of insts commited each cycle
system.switch_cpus_1.commit.COM:committed_per_cycle::3       137226      0.27%     99.44% # Number of insts commited each cycle
system.switch_cpus_1.commit.COM:committed_per_cycle::4        90924      0.18%     99.62% # Number of insts commited each cycle
system.switch_cpus_1.commit.COM:committed_per_cycle::5        78893      0.15%     99.77% # Number of insts commited each cycle
system.switch_cpus_1.commit.COM:committed_per_cycle::6        36519      0.07%     99.84% # Number of insts commited each cycle
system.switch_cpus_1.commit.COM:committed_per_cycle::7        31405      0.06%     99.90% # Number of insts commited each cycle
system.switch_cpus_1.commit.COM:committed_per_cycle::8        50525      0.10%    100.00% # Number of insts commited each cycle
system.switch_cpus_1.commit.COM:committed_per_cycle::overflows            0      0.00%    100.00% # Number of insts commited each cycle
system.switch_cpus_1.commit.COM:committed_per_cycle::min_value            0                       # Number of insts commited each cycle
system.switch_cpus_1.commit.COM:committed_per_cycle::max_value            8                       # Number of insts commited each cycle
system.switch_cpus_1.commit.COM:committed_per_cycle::total     51615980                       # Number of insts commited each cycle
system.switch_cpus_1.commit.COM:count        10313748                       # Number of instructions committed
system.switch_cpus_1.commit.COM:loads         2510912                       # Number of loads committed
system.switch_cpus_1.commit.COM:membars             0                       # Number of memory barriers committed
system.switch_cpus_1.commit.COM:refs          2655008                       # Number of memory references committed
system.switch_cpus_1.commit.COM:swp_count            0                       # Number of s/w prefetches committed
system.switch_cpus_1.commit.branchMispredicts        19695                       # The number of times a branch was mispredicted
system.switch_cpus_1.commit.commitCommittedInsts     10313748                       # The number of committed instructions
system.switch_cpus_1.commit.commitNonSpecStalls            1                       # The number of times commit has been forced to stall to communicate backwards
system.switch_cpus_1.commit.commitSquashedInsts     21819236                       # The number of squashed insts skipped by commit
system.switch_cpus_1.committedInsts          10000000                       # Number of Instructions Simulated
system.switch_cpus_1.committedInsts_total     10000000                       # Number of Instructions Simulated
system.switch_cpus_1.cpi                    27.840320                       # CPI: Cycles Per Instruction
system.switch_cpus_1.cpi_total              27.840320                       # CPI: Total CPI of All Threads
system.switch_cpus_1.decode.DECODE:BlockedCycles     36793046                       # Number of cycles decode is blocked
system.switch_cpus_1.decode.DECODE:BranchMispred          325                       # Number of times decode detected a branch misprediction
system.switch_cpus_1.decode.DECODE:BranchResolved        90198                       # Number of times decode resolved a branch
system.switch_cpus_1.decode.DECODE:DecodedInsts     33902578                       # Number of instructions handled by decode
system.switch_cpus_1.decode.DECODE:IdleCycles      7706511                       # Number of cycles decode is idle
system.switch_cpus_1.decode.DECODE:RunCycles      6443283                       # Number of cycles decode is running
system.switch_cpus_1.decode.DECODE:SquashCycles      2934316                       # Number of cycles decode is squashing
system.switch_cpus_1.decode.DECODE:SquashedInsts         1355                       # Number of squashed instructions handled by decode
system.switch_cpus_1.decode.DECODE:UnblockCycles       673139                       # Number of cycles decode is unblocking
system.switch_cpus_1.dtb.data_accesses        3995180                       # DTB accesses
system.switch_cpus_1.dtb.data_acv                   0                       # DTB access violations
system.switch_cpus_1.dtb.data_hits            3403939                       # DTB hits
system.switch_cpus_1.dtb.data_misses           591241                       # DTB misses
system.switch_cpus_1.dtb.fetch_accesses             0                       # ITB accesses
system.switch_cpus_1.dtb.fetch_acv                  0                       # ITB acv
system.switch_cpus_1.dtb.fetch_hits                 0                       # ITB hits
system.switch_cpus_1.dtb.fetch_misses               0                       # ITB misses
system.switch_cpus_1.dtb.read_accesses        3827920                       # DTB read accesses
system.switch_cpus_1.dtb.read_acv                   0                       # DTB read access violations
system.switch_cpus_1.dtb.read_hits            3237295                       # DTB read hits
system.switch_cpus_1.dtb.read_misses           590625                       # DTB read misses
system.switch_cpus_1.dtb.write_accesses        167260                       # DTB write accesses
system.switch_cpus_1.dtb.write_acv                  0                       # DTB write access violations
system.switch_cpus_1.dtb.write_hits            166644                       # DTB write hits
system.switch_cpus_1.dtb.write_misses             616                       # DTB write misses
system.switch_cpus_1.fetch.Branches           5386207                       # Number of branches that fetch encountered
system.switch_cpus_1.fetch.CacheLines         3234800                       # Number of cache lines fetched
system.switch_cpus_1.fetch.Cycles            10644343                       # Number of cycles fetch has run and was not squashing or blocked
system.switch_cpus_1.fetch.IcacheSquashes         4623                       # Number of outstanding Icache misses that were squashed
system.switch_cpus_1.fetch.Insts             35337593                       # Number of instructions fetch has processed
system.switch_cpus_1.fetch.SquashCycles        317399                       # Number of cycles fetch has spent squashing
system.switch_cpus_1.fetch.branchRate        0.019347                       # Number of branch fetches per cycle
system.switch_cpus_1.fetch.icacheStallCycles      3234800                       # Number of cycles fetch is stalled on an Icache miss
system.switch_cpus_1.fetch.predictedBranches      4601750                       # Number of branches that fetch has predicted taken
system.switch_cpus_1.fetch.rate              0.126930                       # Number of inst fetches per cycle
system.switch_cpus_1.fetch.rateDist::samples     54550296                       # Number of instructions fetched each cycle (Total)
system.switch_cpus_1.fetch.rateDist::mean     0.647798                       # Number of instructions fetched each cycle (Total)
system.switch_cpus_1.fetch.rateDist::stdev     1.838217                       # Number of instructions fetched each cycle (Total)
system.switch_cpus_1.fetch.rateDist::underflows            0      0.00%      0.00% # Number of instructions fetched each cycle (Total)
system.switch_cpus_1.fetch.rateDist::0       47140830     86.42%     86.42% # Number of instructions fetched each cycle (Total)
system.switch_cpus_1.fetch.rateDist::1         936037      1.72%     88.13% # Number of instructions fetched each cycle (Total)
system.switch_cpus_1.fetch.rateDist::2          74218      0.14%     88.27% # Number of instructions fetched each cycle (Total)
system.switch_cpus_1.fetch.rateDist::3          64969      0.12%     88.39% # Number of instructions fetched each cycle (Total)
system.switch_cpus_1.fetch.rateDist::4        4062043      7.45%     95.83% # Number of instructions fetched each cycle (Total)
system.switch_cpus_1.fetch.rateDist::5          56306      0.10%     95.94% # Number of instructions fetched each cycle (Total)
system.switch_cpus_1.fetch.rateDist::6          81827      0.15%     96.09% # Number of instructions fetched each cycle (Total)
system.switch_cpus_1.fetch.rateDist::7          34979      0.06%     96.15% # Number of instructions fetched each cycle (Total)
system.switch_cpus_1.fetch.rateDist::8        2099087      3.85%    100.00% # Number of instructions fetched each cycle (Total)
system.switch_cpus_1.fetch.rateDist::overflows            0      0.00%    100.00% # Number of instructions fetched each cycle (Total)
system.switch_cpus_1.fetch.rateDist::min_value            0                       # Number of instructions fetched each cycle (Total)
system.switch_cpus_1.fetch.rateDist::max_value            8                       # Number of instructions fetched each cycle (Total)
system.switch_cpus_1.fetch.rateDist::total     54550296                       # Number of instructions fetched each cycle (Total)
system.switch_cpus_1.idleCycles             223852901                       # Total number of cycles that the CPU has spent unscheduled due to idling
system.switch_cpus_1.iew.EXEC:branches        2326749                       # Number of branches executed
system.switch_cpus_1.iew.EXEC:nop              361789                       # number of nop insts executed
system.switch_cpus_1.iew.EXEC:rate           0.051223                       # Inst execution rate
system.switch_cpus_1.iew.EXEC:refs            4001579                       # number of memory reference insts executed
system.switch_cpus_1.iew.EXEC:stores           167260                       # Number of stores executed
system.switch_cpus_1.iew.EXEC:swp                   0                       # number of swp insts executed
system.switch_cpus_1.iew.WB:consumers        12083014                       # num instructions consuming a value
system.switch_cpus_1.iew.WB:count            13644941                       # cumulative count of insts written-back
system.switch_cpus_1.iew.WB:fanout           0.655095                       # average fanout of values written-back
system.switch_cpus_1.iew.WB:penalized               0                       # number of instrctions required to write to 'other' IQ
system.switch_cpus_1.iew.WB:penalized_rate            0                       # fraction of instructions written-back that wrote to 'other' IQ
system.switch_cpus_1.iew.WB:producers         7915527                       # num instructions producing a value
system.switch_cpus_1.iew.WB:rate             0.049011                       # insts written-back per cycle
system.switch_cpus_1.iew.WB:sent             14236743                       # cumulative count of insts sent to commit
system.switch_cpus_1.iew.branchMispredicts        22883                       # Number of branch mispredicts detected at execute
system.switch_cpus_1.iew.iewBlockCycles      25934873                       # Number of cycles IEW is blocking
system.switch_cpus_1.iew.iewDispLoadInsts      8755561                       # Number of dispatched load instructions
system.switch_cpus_1.iew.iewDispNonSpecInsts            1                       # Number of dispatched non-speculative instructions
system.switch_cpus_1.iew.iewDispSquashedInsts        20960                       # Number of squashed instructions skipped by dispatch
system.switch_cpus_1.iew.iewDispStoreInsts       183946                       # Number of dispatched store instructions
system.switch_cpus_1.iew.iewDispatchedInsts     32607808                       # Number of instructions dispatched to IQ
system.switch_cpus_1.iew.iewExecLoadInsts      3834319                       # Number of load instructions executed
system.switch_cpus_1.iew.iewExecSquashedInsts        18242                       # Number of squashed instructions skipped in execute
system.switch_cpus_1.iew.iewExecutedInsts     14260764                       # Number of executed instructions
system.switch_cpus_1.iew.iewIQFullEvents       368154                       # Number of times the IQ has become full, causing a stall
system.switch_cpus_1.iew.iewIdleCycles              0                       # Number of cycles IEW is idle
system.switch_cpus_1.iew.iewLSQFullEvents          813                       # Number of times the LSQ has become full, causing a stall
system.switch_cpus_1.iew.iewSquashCycles      2934316                       # Number of cycles IEW is squashing
system.switch_cpus_1.iew.iewUnblockCycles      1046180                       # Number of cycles IEW is unblocking
system.switch_cpus_1.iew.lsq.thread.0.blockedLoads            0                       # Number of blocked loads due to partial load-store forwarding
system.switch_cpus_1.iew.lsq.thread.0.cacheBlocked         8207                       # Number of times an access to memory failed due to the cache being blocked
system.switch_cpus_1.iew.lsq.thread.0.forwLoads        31620                       # Number of loads that had data forwarded from stores
system.switch_cpus_1.iew.lsq.thread.0.ignoredResponses          271                       # Number of memory responses ignored because the instruction is squashed
system.switch_cpus_1.iew.lsq.thread.0.invAddrLoads            0                       # Number of loads ignored due to an invalid address
system.switch_cpus_1.iew.lsq.thread.0.invAddrSwpfs            0                       # Number of software prefetches ignored due to an invalid address
system.switch_cpus_1.iew.lsq.thread.0.memOrderViolation          579                       # Number of memory ordering violations
system.switch_cpus_1.iew.lsq.thread.0.rescheduledLoads            0                       # Number of loads that were rescheduled
system.switch_cpus_1.iew.lsq.thread.0.squashedLoads      6244628                       # Number of loads squashed
system.switch_cpus_1.iew.lsq.thread.0.squashedStores        39850                       # Number of stores squashed
system.switch_cpus_1.iew.memOrderViolationEvents          579                       # Number of memory order violations
system.switch_cpus_1.iew.predictedNotTakenIncorrect         6762                       # Number of branches that were predicted not taken incorrectly
system.switch_cpus_1.iew.predictedTakenIncorrect        16121                       # Number of branches that were predicted taken incorrectly
system.switch_cpus_1.ipc                     0.035919                       # IPC: Instructions Per Cycle
system.switch_cpus_1.ipc_total               0.035919                       # IPC: Total IPC of All Threads
system.switch_cpus_1.iq.ISSUE:FU_type_0::No_OpClass            0      0.00%      0.00% # Type of FU issued
system.switch_cpus_1.iq.ISSUE:FU_type_0::IntAlu     10265333     71.89%     71.89% # Type of FU issued
system.switch_cpus_1.iq.ISSUE:FU_type_0::IntMult         1084      0.01%     71.90% # Type of FU issued
system.switch_cpus_1.iq.ISSUE:FU_type_0::IntDiv            0      0.00%     71.90% # Type of FU issued
system.switch_cpus_1.iq.ISSUE:FU_type_0::FloatAdd         3742      0.03%     71.92% # Type of FU issued
system.switch_cpus_1.iq.ISSUE:FU_type_0::FloatCmp            0      0.00%     71.92% # Type of FU issued
system.switch_cpus_1.iq.ISSUE:FU_type_0::FloatCvt         1100      0.01%     71.93% # Type of FU issued
system.switch_cpus_1.iq.ISSUE:FU_type_0::FloatMult          220      0.00%     71.93% # Type of FU issued
system.switch_cpus_1.iq.ISSUE:FU_type_0::FloatDiv            0      0.00%     71.93% # Type of FU issued
system.switch_cpus_1.iq.ISSUE:FU_type_0::FloatSqrt            0      0.00%     71.93% # Type of FU issued
system.switch_cpus_1.iq.ISSUE:FU_type_0::MemRead      3838737     26.88%     98.82% # Type of FU issued
system.switch_cpus_1.iq.ISSUE:FU_type_0::MemWrite       168790      1.18%    100.00% # Type of FU issued
system.switch_cpus_1.iq.ISSUE:FU_type_0::IprAccess            0      0.00%    100.00% # Type of FU issued
system.switch_cpus_1.iq.ISSUE:FU_type_0::InstPrefetch            0      0.00%    100.00% # Type of FU issued
system.switch_cpus_1.iq.ISSUE:FU_type_0::total     14279006                       # Type of FU issued
system.switch_cpus_1.iq.ISSUE:fu_busy_cnt         8799                       # FU busy when requested
system.switch_cpus_1.iq.ISSUE:fu_busy_rate     0.000616                       # FU busy rate (busy events/executed inst)
system.switch_cpus_1.iq.ISSUE:fu_full::No_OpClass            0      0.00%      0.00% # attempts to use FU when none available
system.switch_cpus_1.iq.ISSUE:fu_full::IntAlu           71      0.81%      0.81% # attempts to use FU when none available
system.switch_cpus_1.iq.ISSUE:fu_full::IntMult            0      0.00%      0.81% # attempts to use FU when none available
system.switch_cpus_1.iq.ISSUE:fu_full::IntDiv            0      0.00%      0.81% # attempts to use FU when none available
system.switch_cpus_1.iq.ISSUE:fu_full::FloatAdd            0      0.00%      0.81% # attempts to use FU when none available
system.switch_cpus_1.iq.ISSUE:fu_full::FloatCmp            0      0.00%      0.81% # attempts to use FU when none available
system.switch_cpus_1.iq.ISSUE:fu_full::FloatCvt            0      0.00%      0.81% # attempts to use FU when none available
system.switch_cpus_1.iq.ISSUE:fu_full::FloatMult            0      0.00%      0.81% # attempts to use FU when none available
system.switch_cpus_1.iq.ISSUE:fu_full::FloatDiv            0      0.00%      0.81% # attempts to use FU when none available
system.switch_cpus_1.iq.ISSUE:fu_full::FloatSqrt            0      0.00%      0.81% # attempts to use FU when none available
system.switch_cpus_1.iq.ISSUE:fu_full::MemRead         4866     55.30%     56.11% # attempts to use FU when none available
system.switch_cpus_1.iq.ISSUE:fu_full::MemWrite         3862     43.89%    100.00% # attempts to use FU when none available
system.switch_cpus_1.iq.ISSUE:fu_full::IprAccess            0      0.00%    100.00% # attempts to use FU when none available
system.switch_cpus_1.iq.ISSUE:fu_full::InstPrefetch            0      0.00%    100.00% # attempts to use FU when none available
system.switch_cpus_1.iq.ISSUE:issued_per_cycle::samples     54550296                       # Number of insts issued each cycle
system.switch_cpus_1.iq.ISSUE:issued_per_cycle::mean     0.261759                       # Number of insts issued each cycle
system.switch_cpus_1.iq.ISSUE:issued_per_cycle::stdev     0.644211                       # Number of insts issued each cycle
system.switch_cpus_1.iq.ISSUE:issued_per_cycle::underflows            0      0.00%      0.00% # Number of insts issued each cycle
system.switch_cpus_1.iq.ISSUE:issued_per_cycle::0     44247184     81.11%     81.11% # Number of insts issued each cycle
system.switch_cpus_1.iq.ISSUE:issued_per_cycle::1      7875689     14.44%     95.55% # Number of insts issued each cycle
system.switch_cpus_1.iq.ISSUE:issued_per_cycle::2      1256532      2.30%     97.85% # Number of insts issued each cycle
system.switch_cpus_1.iq.ISSUE:issued_per_cycle::3       914616      1.68%     99.53% # Number of insts issued each cycle
system.switch_cpus_1.iq.ISSUE:issued_per_cycle::4       155315      0.28%     99.81% # Number of insts issued each cycle
system.switch_cpus_1.iq.ISSUE:issued_per_cycle::5        85517      0.16%     99.97% # Number of insts issued each cycle
system.switch_cpus_1.iq.ISSUE:issued_per_cycle::6        10769      0.02%     99.99% # Number of insts issued each cycle
system.switch_cpus_1.iq.ISSUE:issued_per_cycle::7         4446      0.01%    100.00% # Number of insts issued each cycle
system.switch_cpus_1.iq.ISSUE:issued_per_cycle::8          228      0.00%    100.00% # Number of insts issued each cycle
system.switch_cpus_1.iq.ISSUE:issued_per_cycle::overflows            0      0.00%    100.00% # Number of insts issued each cycle
system.switch_cpus_1.iq.ISSUE:issued_per_cycle::min_value            0                       # Number of insts issued each cycle
system.switch_cpus_1.iq.ISSUE:issued_per_cycle::max_value            8                       # Number of insts issued each cycle
system.switch_cpus_1.iq.ISSUE:issued_per_cycle::total     54550296                       # Number of insts issued each cycle
system.switch_cpus_1.iq.ISSUE:rate           0.051289                       # Inst issue rate
system.switch_cpus_1.iq.iqInstsAdded         32246018                       # Number of instructions added to the IQ (excludes non-spec)
system.switch_cpus_1.iq.iqInstsIssued        14279006                       # Number of instructions issued
system.switch_cpus_1.iq.iqNonSpecInstsAdded            1                       # Number of non-speculative instructions added to the IQ
system.switch_cpus_1.iq.iqSquashedInstsExamined     22226205                       # Number of squashed instructions iterated over during squash; mainly for profiling
system.switch_cpus_1.iq.iqSquashedInstsIssued          507                       # Number of squashed instructions issued
system.switch_cpus_1.iq.iqSquashedOperandsExamined     31593457                       # Number of squashed operands that are examined and possibly removed from graph
system.switch_cpus_1.itb.data_accesses              0                       # DTB accesses
system.switch_cpus_1.itb.data_acv                   0                       # DTB access violations
system.switch_cpus_1.itb.data_hits                  0                       # DTB hits
system.switch_cpus_1.itb.data_misses                0                       # DTB misses
system.switch_cpus_1.itb.fetch_accesses       3234877                       # ITB accesses
system.switch_cpus_1.itb.fetch_acv                  0                       # ITB acv
system.switch_cpus_1.itb.fetch_hits           3234800                       # ITB hits
system.switch_cpus_1.itb.fetch_misses              77                       # ITB misses
system.switch_cpus_1.itb.read_accesses              0                       # DTB read accesses
system.switch_cpus_1.itb.read_acv                   0                       # DTB read access violations
system.switch_cpus_1.itb.read_hits                  0                       # DTB read hits
system.switch_cpus_1.itb.read_misses                0                       # DTB read misses
system.switch_cpus_1.itb.write_accesses             0                       # DTB write accesses
system.switch_cpus_1.itb.write_acv                  0                       # DTB write access violations
system.switch_cpus_1.itb.write_hits                 0                       # DTB write hits
system.switch_cpus_1.itb.write_misses               0                       # DTB write misses
system.switch_cpus_1.memDep0.conflictingLoads        67413                       # Number of conflicting loads.
system.switch_cpus_1.memDep0.conflictingStores         2681                       # Number of conflicting stores.
system.switch_cpus_1.memDep0.insertedLoads      8755561                       # Number of loads inserted to the mem dependence unit.
system.switch_cpus_1.memDep0.insertedStores       183946                       # Number of stores inserted to the mem dependence unit.
system.switch_cpus_1.numCycles              278403197                       # number of cpu cycles simulated
system.switch_cpus_1.rename.RENAME:BlockCycles     32764126                       # Number of cycles rename is blocking
system.switch_cpus_1.rename.RENAME:CommittedMaps      8255878                       # Number of HB maps that are committed
system.switch_cpus_1.rename.RENAME:IQFullEvents      4233717                       # Number of times rename has blocked due to IQ full
system.switch_cpus_1.rename.RENAME:IdleCycles      8282147                       # Number of cycles rename is idle
system.switch_cpus_1.rename.RENAME:LSQFullEvents        23792                       # Number of times rename has blocked due to LSQ full
system.switch_cpus_1.rename.RENAME:ROBFullEvents          691                       # Number of times rename has blocked due to ROB full
system.switch_cpus_1.rename.RENAME:RenameLookups     53299930                       # Number of register rename lookups that rename has made
system.switch_cpus_1.rename.RENAME:RenamedInsts     33076972                       # Number of instructions processed by rename
system.switch_cpus_1.rename.RENAME:RenamedOperands     27527973                       # Number of destination operands rename has renamed
system.switch_cpus_1.rename.RENAME:RunCycles      6582038                       # Number of cycles rename is running
system.switch_cpus_1.rename.RENAME:SquashCycles      2934316                       # Number of cycles rename is squashing
system.switch_cpus_1.rename.RENAME:UnblockCycles      3987657                       # Number of cycles rename is unblocking
system.switch_cpus_1.rename.RENAME:UndoneMaps     19272028                       # Number of HB maps that are undone due to squashing
system.switch_cpus_1.rename.RENAME:serializeStallCycles           11                       # count of cycles rename stalled for serializing inst
system.switch_cpus_1.rename.RENAME:serializingInsts            1                       # count of serializing insts renamed
system.switch_cpus_1.rename.RENAME:skidInsts      7717215                       # count of insts added to the skid buffer
system.switch_cpus_1.rename.RENAME:tempSerializingInsts            1                       # count of temporary serializing insts renamed
system.switch_cpus_1.timesIdled               1812003                       # Number of times that the entire CPU went into an idle state and unscheduled itself

---------- End Simulation Statistics   ----------
