
---------- Begin Simulation Statistics ----------
host_inst_rate                                 263433                       # Simulator instruction rate (inst/s)
host_mem_usage                                 397156                       # Number of bytes of host memory used
host_seconds                                    75.92                       # Real time elapsed on the host
host_tick_rate                              259501522                       # Simulator tick rate (ticks/s)
sim_freq                                 1000000000000                       # Frequency of simulated ticks
sim_insts                                    20000006                       # Number of instructions simulated
sim_seconds                                  0.019702                       # Number of seconds simulated
sim_ticks                                 19701619500                       # Number of ticks simulated
system.cpu.dcache.ReadReq_accesses            2922756                       # number of ReadReq accesses(hits+misses)
system.cpu.dcache.ReadReq_avg_miss_latency 21500.560034                       # average ReadReq miss latency
system.cpu.dcache.ReadReq_avg_mshr_miss_latency 11080.486077                       # average ReadReq mshr miss latency
system.cpu.dcache.ReadReq_hits                2777229                       # number of ReadReq hits
system.cpu.dcache.ReadReq_miss_latency     3128912000                       # number of ReadReq miss cycles
system.cpu.dcache.ReadReq_miss_rate          0.049791                       # miss rate for ReadReq accesses
system.cpu.dcache.ReadReq_misses               145527                       # number of ReadReq misses
system.cpu.dcache.ReadReq_mshr_hits             93313                       # number of ReadReq MSHR hits
system.cpu.dcache.ReadReq_mshr_miss_latency    578556500                       # number of ReadReq MSHR miss cycles
system.cpu.dcache.ReadReq_mshr_miss_rate     0.017865                       # mshr miss rate for ReadReq accesses
system.cpu.dcache.ReadReq_mshr_misses           52214                       # number of ReadReq MSHR misses
system.cpu.dcache.WriteReq_accesses           1252170                       # number of WriteReq accesses(hits+misses)
system.cpu.dcache.WriteReq_avg_miss_latency 50481.356717                       # average WriteReq miss latency
system.cpu.dcache.WriteReq_avg_mshr_miss_latency 46551.641303                       # average WriteReq mshr miss latency
system.cpu.dcache.WriteReq_hits               1068565                       # number of WriteReq hits
system.cpu.dcache.WriteReq_miss_latency    9268629500                       # number of WriteReq miss cycles
system.cpu.dcache.WriteReq_miss_rate         0.146629                       # miss rate for WriteReq accesses
system.cpu.dcache.WriteReq_misses              183605                       # number of WriteReq misses
system.cpu.dcache.WriteReq_mshr_hits           105344                       # number of WriteReq MSHR hits
system.cpu.dcache.WriteReq_mshr_miss_latency   3643178000                       # number of WriteReq MSHR miss cycles
system.cpu.dcache.WriteReq_mshr_miss_rate     0.062500                       # mshr miss rate for WriteReq accesses
system.cpu.dcache.WriteReq_mshr_misses          78261                       # number of WriteReq MSHR misses
system.cpu.dcache.avg_blocked_cycles::no_mshrs     no_value                       # average number of cycles each access was blocked
system.cpu.dcache.avg_blocked_cycles::no_targets 42259.031362                       # average number of cycles each access was blocked
system.cpu.dcache.avg_refs                  51.126346                       # Average number of references to valid blocks.
system.cpu.dcache.blocked::no_mshrs                 0                       # number of cycles access was blocked
system.cpu.dcache.blocked::no_targets           35266                       # number of cycles access was blocked
system.cpu.dcache.blocked_cycles::no_mshrs            0                       # number of cycles access was blocked
system.cpu.dcache.blocked_cycles::no_targets   1490307000                       # number of cycles access was blocked
system.cpu.dcache.cache_copies                      0                       # number of cache copies performed
system.cpu.dcache.demand_accesses             4174926                       # number of demand (read+write) accesses
system.cpu.dcache.demand_avg_miss_latency 37667.384211                       # average overall miss latency
system.cpu.dcache.demand_avg_mshr_miss_latency 32356.654532                       # average overall mshr miss latency
system.cpu.dcache.demand_hits                 3845794                       # number of demand (read+write) hits
system.cpu.dcache.demand_miss_latency     12397541500                       # number of demand (read+write) miss cycles
system.cpu.dcache.demand_miss_rate           0.078835                       # miss rate for demand accesses
system.cpu.dcache.demand_misses                329132                       # number of demand (read+write) misses
system.cpu.dcache.demand_mshr_hits             198657                       # number of demand (read+write) MSHR hits
system.cpu.dcache.demand_mshr_miss_latency   4221734500                       # number of demand (read+write) MSHR miss cycles
system.cpu.dcache.demand_mshr_miss_rate      0.031252                       # mshr miss rate for demand accesses
system.cpu.dcache.demand_mshr_misses           130475                       # number of demand (read+write) MSHR misses
system.cpu.dcache.fast_writes                       0                       # number of fast writes performed
system.cpu.dcache.mshr_cap_events                   0                       # number of times MSHR cap was activated
system.cpu.dcache.no_allocate_misses                0                       # Number of misses that were no-allocate
system.cpu.dcache.occ_%::0                   0.990449                       # Average percentage of cache occupancy
system.cpu.dcache.occ_blocks::0           1014.220045                       # Average occupied blocks per context
system.cpu.dcache.overall_accesses            4174926                       # number of overall (read+write) accesses
system.cpu.dcache.overall_avg_miss_latency 37667.384211                       # average overall miss latency
system.cpu.dcache.overall_avg_mshr_miss_latency 32356.654532                       # average overall mshr miss latency
system.cpu.dcache.overall_avg_mshr_uncacheable_latency     no_value                       # average overall mshr uncacheable latency
system.cpu.dcache.overall_hits                3845794                       # number of overall hits
system.cpu.dcache.overall_miss_latency    12397541500                       # number of overall miss cycles
system.cpu.dcache.overall_miss_rate          0.078835                       # miss rate for overall accesses
system.cpu.dcache.overall_misses               329132                       # number of overall misses
system.cpu.dcache.overall_mshr_hits            198657                       # number of overall MSHR hits
system.cpu.dcache.overall_mshr_miss_latency   4221734500                       # number of overall MSHR miss cycles
system.cpu.dcache.overall_mshr_miss_rate     0.031252                       # mshr miss rate for overall accesses
system.cpu.dcache.overall_mshr_misses          130475                       # number of overall MSHR misses
system.cpu.dcache.overall_mshr_uncacheable_latency            0                       # number of overall MSHR uncacheable cycles
system.cpu.dcache.overall_mshr_uncacheable_misses            0                       # number of overall MSHR uncacheable misses
system.cpu.dcache.prefetch_accuracy          no_value                       # ratio of good prefetches to total prefetches
system.cpu.dcache.prefetch_hits                     0                       # number of prefetched blocks that were accessed
system.cpu.dcache.replacements                  77277                       # number of replacements
system.cpu.dcache.sampled_refs                  78301                       # Sample count of references to valid blocks.
system.cpu.dcache.soft_prefetch_mshr_full            0                       # number of mshr full events for SW prefetching instrutions
system.cpu.dcache.tagsinuse               1014.220045                       # Cycle average of tags in use
system.cpu.dcache.total_refs                  4003244                       # Total number of references to valid blocks.
system.cpu.dcache.warmup_cycle           500384714000                       # Cycle when the warmup percentage was hit.
system.cpu.dcache.writebacks                    77244                       # number of writebacks
system.cpu.dtb.data_accesses                        0                       # DTB accesses
system.cpu.dtb.data_acv                             0                       # DTB access violations
system.cpu.dtb.data_hits                            0                       # DTB hits
system.cpu.dtb.data_misses                          0                       # DTB misses
system.cpu.dtb.fetch_accesses                       0                       # ITB accesses
system.cpu.dtb.fetch_acv                            0                       # ITB acv
system.cpu.dtb.fetch_hits                           0                       # ITB hits
system.cpu.dtb.fetch_misses                         0                       # ITB misses
system.cpu.dtb.read_accesses                        0                       # DTB read accesses
system.cpu.dtb.read_acv                             0                       # DTB read access violations
system.cpu.dtb.read_hits                            0                       # DTB read hits
system.cpu.dtb.read_misses                          0                       # DTB read misses
system.cpu.dtb.write_accesses                       0                       # DTB write accesses
system.cpu.dtb.write_acv                            0                       # DTB write access violations
system.cpu.dtb.write_hits                           0                       # DTB write hits
system.cpu.dtb.write_misses                         0                       # DTB write misses
system.cpu.icache.ReadReq_accesses           12567188                       # number of ReadReq accesses(hits+misses)
system.cpu.icache.ReadReq_avg_miss_latency        61960                       # average ReadReq miss latency
system.cpu.icache.ReadReq_avg_mshr_miss_latency 59133.333333                       # average ReadReq mshr miss latency
system.cpu.icache.ReadReq_hits               12567138                       # number of ReadReq hits
system.cpu.icache.ReadReq_miss_latency        3098000                       # number of ReadReq miss cycles
system.cpu.icache.ReadReq_miss_rate          0.000004                       # miss rate for ReadReq accesses
system.cpu.icache.ReadReq_misses                   50                       # number of ReadReq misses
system.cpu.icache.ReadReq_mshr_hits                 4                       # number of ReadReq MSHR hits
system.cpu.icache.ReadReq_mshr_miss_latency      2661000                       # number of ReadReq MSHR miss cycles
system.cpu.icache.ReadReq_mshr_miss_rate     0.000004                       # mshr miss rate for ReadReq accesses
system.cpu.icache.ReadReq_mshr_misses              45                       # number of ReadReq MSHR misses
system.cpu.icache.avg_blocked_cycles::no_mshrs     no_value                       # average number of cycles each access was blocked
system.cpu.icache.avg_blocked_cycles::no_targets     no_value                       # average number of cycles each access was blocked
system.cpu.icache.avg_refs               273198.652174                       # Average number of references to valid blocks.
system.cpu.icache.blocked::no_mshrs                 0                       # number of cycles access was blocked
system.cpu.icache.blocked::no_targets               0                       # number of cycles access was blocked
system.cpu.icache.blocked_cycles::no_mshrs            0                       # number of cycles access was blocked
system.cpu.icache.blocked_cycles::no_targets            0                       # number of cycles access was blocked
system.cpu.icache.cache_copies                      0                       # number of cache copies performed
system.cpu.icache.demand_accesses            12567188                       # number of demand (read+write) accesses
system.cpu.icache.demand_avg_miss_latency        61960                       # average overall miss latency
system.cpu.icache.demand_avg_mshr_miss_latency 59133.333333                       # average overall mshr miss latency
system.cpu.icache.demand_hits                12567138                       # number of demand (read+write) hits
system.cpu.icache.demand_miss_latency         3098000                       # number of demand (read+write) miss cycles
system.cpu.icache.demand_miss_rate           0.000004                       # miss rate for demand accesses
system.cpu.icache.demand_misses                    50                       # number of demand (read+write) misses
system.cpu.icache.demand_mshr_hits                  4                       # number of demand (read+write) MSHR hits
system.cpu.icache.demand_mshr_miss_latency      2661000                       # number of demand (read+write) MSHR miss cycles
system.cpu.icache.demand_mshr_miss_rate      0.000004                       # mshr miss rate for demand accesses
system.cpu.icache.demand_mshr_misses               45                       # number of demand (read+write) MSHR misses
system.cpu.icache.fast_writes                       0                       # number of fast writes performed
system.cpu.icache.mshr_cap_events                   0                       # number of times MSHR cap was activated
system.cpu.icache.no_allocate_misses                0                       # Number of misses that were no-allocate
system.cpu.icache.occ_%::0                   0.078835                       # Average percentage of cache occupancy
system.cpu.icache.occ_blocks::0             40.363324                       # Average occupied blocks per context
system.cpu.icache.overall_accesses           12567188                       # number of overall (read+write) accesses
system.cpu.icache.overall_avg_miss_latency        61960                       # average overall miss latency
system.cpu.icache.overall_avg_mshr_miss_latency 59133.333333                       # average overall mshr miss latency
system.cpu.icache.overall_avg_mshr_uncacheable_latency     no_value                       # average overall mshr uncacheable latency
system.cpu.icache.overall_hits               12567138                       # number of overall hits
system.cpu.icache.overall_miss_latency        3098000                       # number of overall miss cycles
system.cpu.icache.overall_miss_rate          0.000004                       # miss rate for overall accesses
system.cpu.icache.overall_misses                   50                       # number of overall misses
system.cpu.icache.overall_mshr_hits                 4                       # number of overall MSHR hits
system.cpu.icache.overall_mshr_miss_latency      2661000                       # number of overall MSHR miss cycles
system.cpu.icache.overall_mshr_miss_rate     0.000004                       # mshr miss rate for overall accesses
system.cpu.icache.overall_mshr_misses              45                       # number of overall MSHR misses
system.cpu.icache.overall_mshr_uncacheable_latency            0                       # number of overall MSHR uncacheable cycles
system.cpu.icache.overall_mshr_uncacheable_misses            0                       # number of overall MSHR uncacheable misses
system.cpu.icache.prefetch_accuracy          no_value                       # ratio of good prefetches to total prefetches
system.cpu.icache.prefetch_hits                     0                       # number of prefetched blocks that were accessed
system.cpu.icache.replacements                      0                       # number of replacements
system.cpu.icache.sampled_refs                     46                       # Sample count of references to valid blocks.
system.cpu.icache.soft_prefetch_mshr_full            0                       # number of mshr full events for SW prefetching instrutions
system.cpu.icache.tagsinuse                 40.363324                       # Cycle average of tags in use
system.cpu.icache.total_refs                 12567138                       # Total number of references to valid blocks.
system.cpu.icache.warmup_cycle                      0                       # Cycle when the warmup percentage was hit.
system.cpu.icache.writebacks                        0                       # number of writebacks
system.cpu.idle_fraction                            0                       # Percentage of idle cycles
system.cpu.itb.data_accesses                        0                       # DTB accesses
system.cpu.itb.data_acv                             0                       # DTB access violations
system.cpu.itb.data_hits                            0                       # DTB hits
system.cpu.itb.data_misses                          0                       # DTB misses
system.cpu.itb.fetch_accesses                       2                       # ITB accesses
system.cpu.itb.fetch_acv                            0                       # ITB acv
system.cpu.itb.fetch_hits                           2                       # ITB hits
system.cpu.itb.fetch_misses                         0                       # ITB misses
system.cpu.itb.read_accesses                        0                       # DTB read accesses
system.cpu.itb.read_acv                             0                       # DTB read access violations
system.cpu.itb.read_hits                            0                       # DTB read hits
system.cpu.itb.read_misses                          0                       # DTB read misses
system.cpu.itb.write_accesses                       0                       # DTB write accesses
system.cpu.itb.write_acv                            0                       # DTB write access violations
system.cpu.itb.write_hits                           0                       # DTB write hits
system.cpu.itb.write_misses                         0                       # DTB write misses
system.cpu.not_idle_fraction                        1                       # Percentage of non-idle cycles
system.cpu.numCycles                                2                       # number of cpu cycles simulated
system.cpu.num_insts                                2                       # Number of instructions executed
system.cpu.num_refs                                 0                       # Number of memory references
system.cpu.workload.PROG:num_syscalls               0                       # Number of system calls
system.l2.HardPFReq_avg_mshr_miss_latency 32798.846255                       # average HardPFReq mshr miss latency
system.l2.HardPFReq_mshr_miss_latency      2573003891                       # number of HardPFReq MSHR miss cycles
system.l2.HardPFReq_mshr_miss_rate                inf                       # mshr miss rate for HardPFReq accesses
system.l2.HardPFReq_mshr_misses                 78448                       # number of HardPFReq MSHR misses
system.l2.ReadExReq_accesses                    26088                       # number of ReadExReq accesses(hits+misses)
system.l2.ReadExReq_avg_miss_latency     171166.666667                       # average ReadExReq miss latency
system.l2.ReadExReq_avg_mshr_miss_latency        40000                       # average ReadExReq mshr miss latency
system.l2.ReadExReq_hits                        26085                       # number of ReadExReq hits
system.l2.ReadExReq_miss_latency               513500                       # number of ReadExReq miss cycles
system.l2.ReadExReq_miss_rate                0.000115                       # miss rate for ReadExReq accesses
system.l2.ReadExReq_misses                          3                       # number of ReadExReq misses
system.l2.ReadExReq_mshr_hits                       2                       # number of ReadExReq MSHR hits
system.l2.ReadExReq_mshr_miss_latency           40000                       # number of ReadExReq MSHR miss cycles
system.l2.ReadExReq_mshr_miss_rate           0.000038                       # mshr miss rate for ReadExReq accesses
system.l2.ReadExReq_mshr_misses                     1                       # number of ReadExReq MSHR misses
system.l2.ReadReq_accesses                      52259                       # number of ReadReq accesses(hits+misses)
system.l2.ReadReq_avg_miss_latency       91742.857143                       # average ReadReq miss latency
system.l2.ReadReq_avg_mshr_miss_latency  86879.310345                       # average ReadReq mshr miss latency
system.l2.ReadReq_hits                          52224                       # number of ReadReq hits
system.l2.ReadReq_miss_latency                3211000                       # number of ReadReq miss cycles
system.l2.ReadReq_miss_rate                  0.000670                       # miss rate for ReadReq accesses
system.l2.ReadReq_misses                           35                       # number of ReadReq misses
system.l2.ReadReq_mshr_hits                         5                       # number of ReadReq MSHR hits
system.l2.ReadReq_mshr_miss_latency           2519500                       # number of ReadReq MSHR miss cycles
system.l2.ReadReq_mshr_miss_rate             0.000555                       # mshr miss rate for ReadReq accesses
system.l2.ReadReq_mshr_misses                      29                       # number of ReadReq MSHR misses
system.l2.UpgradeReq_accesses                   52173                       # number of UpgradeReq accesses(hits+misses)
system.l2.UpgradeReq_avg_miss_latency    63258.677860                       # average UpgradeReq miss latency
system.l2.UpgradeReq_avg_mshr_miss_latency 47769.583884                       # average UpgradeReq mshr miss latency
system.l2.UpgradeReq_miss_latency          3300395000                       # number of UpgradeReq miss cycles
system.l2.UpgradeReq_miss_rate                      1                       # miss rate for UpgradeReq accesses
system.l2.UpgradeReq_misses                     52173                       # number of UpgradeReq misses
system.l2.UpgradeReq_mshr_miss_latency     2492282500                       # number of UpgradeReq MSHR miss cycles
system.l2.UpgradeReq_mshr_miss_rate                 1                       # mshr miss rate for UpgradeReq accesses
system.l2.UpgradeReq_mshr_misses                52173                       # number of UpgradeReq MSHR misses
system.l2.Writeback_accesses                    77244                       # number of Writeback accesses(hits+misses)
system.l2.Writeback_hits                        77244                       # number of Writeback hits
system.l2.avg_blocked_cycles::no_mshrs       no_value                       # average number of cycles each access was blocked
system.l2.avg_blocked_cycles::no_targets     no_value                       # average number of cycles each access was blocked
system.l2.avg_refs                           0.025239                       # Average number of references to valid blocks.
system.l2.blocked::no_mshrs                         0                       # number of cycles access was blocked
system.l2.blocked::no_targets                       0                       # number of cycles access was blocked
system.l2.blocked_cycles::no_mshrs                  0                       # number of cycles access was blocked
system.l2.blocked_cycles::no_targets                0                       # number of cycles access was blocked
system.l2.cache_copies                              0                       # number of cache copies performed
system.l2.demand_accesses                       78347                       # number of demand (read+write) accesses
system.l2.demand_avg_miss_latency        98013.157895                       # average overall miss latency
system.l2.demand_avg_mshr_miss_latency   85316.666667                       # average overall mshr miss latency
system.l2.demand_hits                           78309                       # number of demand (read+write) hits
system.l2.demand_miss_latency                 3724500                       # number of demand (read+write) miss cycles
system.l2.demand_miss_rate                   0.000485                       # miss rate for demand accesses
system.l2.demand_misses                            38                       # number of demand (read+write) misses
system.l2.demand_mshr_hits                          7                       # number of demand (read+write) MSHR hits
system.l2.demand_mshr_miss_latency            2559500                       # number of demand (read+write) MSHR miss cycles
system.l2.demand_mshr_miss_rate              0.000383                       # mshr miss rate for demand accesses
system.l2.demand_mshr_misses                       30                       # number of demand (read+write) MSHR misses
system.l2.fast_writes                               0                       # number of fast writes performed
system.l2.mshr_cap_events                           0                       # number of times MSHR cap was activated
system.l2.no_allocate_misses                        0                       # Number of misses that were no-allocate
system.l2.occ_%::0                           0.001981                       # Average percentage of cache occupancy
system.l2.occ_%::1                           0.452001                       # Average percentage of cache occupancy
system.l2.occ_blocks::0                     32.450430                       # Average occupied blocks per context
system.l2.occ_blocks::1                   7405.585712                       # Average occupied blocks per context
system.l2.overall_accesses                      78347                       # number of overall (read+write) accesses
system.l2.overall_avg_miss_latency       98013.157895                       # average overall miss latency
system.l2.overall_avg_mshr_miss_latency  32818.922386                       # average overall mshr miss latency
system.l2.overall_avg_mshr_uncacheable_latency     no_value                       # average overall mshr uncacheable latency
system.l2.overall_hits                          78309                       # number of overall hits
system.l2.overall_miss_latency                3724500                       # number of overall miss cycles
system.l2.overall_miss_rate                  0.000485                       # miss rate for overall accesses
system.l2.overall_misses                           38                       # number of overall misses
system.l2.overall_mshr_hits                         7                       # number of overall MSHR hits
system.l2.overall_mshr_miss_latency        2575563391                       # number of overall MSHR miss cycles
system.l2.overall_mshr_miss_rate             1.001672                       # mshr miss rate for overall accesses
system.l2.overall_mshr_misses                   78478                       # number of overall MSHR misses
system.l2.overall_mshr_uncacheable_latency            0                       # number of overall MSHR uncacheable cycles
system.l2.overall_mshr_uncacheable_misses            0                       # number of overall MSHR uncacheable misses
system.l2.prefetch_accuracy                  0.665332                       # ratio of good prefetches to total prefetches
system.l2.prefetch_hits                         52194                       # number of prefetched blocks that were accessed
system.l2.prefetcher.num_hwpf_already_in_prefetcher        58953                       # number of hwpf that were already in the prefetch queue
system.l2.prefetcher.num_hwpf_evicted               0                       # number of hwpf removed due to no buffer left
system.l2.prefetcher.num_hwpf_identified       152647                       # number of hwpf identified
system.l2.prefetcher.num_hwpf_issued            93688                       # number of hwpf issued
system.l2.prefetcher.num_hwpf_removed_MSHR_hit            5                       # number of hwpf removed because MSHR allocated
system.l2.prefetcher.num_hwpf_span_page             0                       # number of hwpf spanning a virtual page
system.l2.prefetcher.num_hwpf_squashed_from_miss            0                       # number of hwpf that got squashed due to a miss aborting calculation time
system.l2.replacements                          69257                       # number of replacements
system.l2.sampled_refs                          77460                       # Sample count of references to valid blocks.
system.l2.soft_prefetch_mshr_full                   0                       # number of mshr full events for SW prefetching instrutions
system.l2.tagsinuse                       7438.036142                       # Cycle average of tags in use
system.l2.total_refs                             1955                       # Total number of references to valid blocks.
system.l2.warmup_cycle                              0                       # Cycle when the warmup percentage was hit.
system.l2.writebacks                            69052                       # number of writebacks
system.switch_cpus.dtb.data_accesses          2101668                       # DTB accesses
system.switch_cpus.dtb.data_acv                     0                       # DTB access violations
system.switch_cpus.dtb.data_hits              2101344                       # DTB hits
system.switch_cpus.dtb.data_misses                324                       # DTB misses
system.switch_cpus.dtb.fetch_accesses               0                       # ITB accesses
system.switch_cpus.dtb.fetch_acv                    0                       # ITB acv
system.switch_cpus.dtb.fetch_hits                   0                       # ITB hits
system.switch_cpus.dtb.fetch_misses                 0                       # ITB misses
system.switch_cpus.dtb.read_accesses          1481486                       # DTB read accesses
system.switch_cpus.dtb.read_acv                     0                       # DTB read access violations
system.switch_cpus.dtb.read_hits              1481268                       # DTB read hits
system.switch_cpus.dtb.read_misses                218                       # DTB read misses
system.switch_cpus.dtb.write_accesses          620182                       # DTB write accesses
system.switch_cpus.dtb.write_acv                    0                       # DTB write access violations
system.switch_cpus.dtb.write_hits              620076                       # DTB write hits
system.switch_cpus.dtb.write_misses               106                       # DTB write misses
system.switch_cpus.idle_fraction                    1                       # Percentage of idle cycles
system.switch_cpus.itb.data_accesses                0                       # DTB accesses
system.switch_cpus.itb.data_acv                     0                       # DTB access violations
system.switch_cpus.itb.data_hits                    0                       # DTB hits
system.switch_cpus.itb.data_misses                  0                       # DTB misses
system.switch_cpus.itb.fetch_accesses        10000330                       # ITB accesses
system.switch_cpus.itb.fetch_acv                    0                       # ITB acv
system.switch_cpus.itb.fetch_hits            10000326                       # ITB hits
system.switch_cpus.itb.fetch_misses                 4                       # ITB misses
system.switch_cpus.itb.read_accesses                0                       # DTB read accesses
system.switch_cpus.itb.read_acv                     0                       # DTB read access violations
system.switch_cpus.itb.read_hits                    0                       # DTB read hits
system.switch_cpus.itb.read_misses                  0                       # DTB read misses
system.switch_cpus.itb.write_accesses               0                       # DTB write accesses
system.switch_cpus.itb.write_acv                    0                       # DTB write access violations
system.switch_cpus.itb.write_hits                   0                       # DTB write hits
system.switch_cpus.itb.write_misses                 0                       # DTB write misses
system.switch_cpus.not_idle_fraction                0                       # Percentage of non-idle cycles
system.switch_cpus.numCycles                 28495374                       # number of cpu cycles simulated
system.switch_cpus.num_insts                 10000001                       # Number of instructions executed
system.switch_cpus.num_refs                   2170562                       # Number of memory references
system.switch_cpus_1.BPredUnit.BTBCorrect            0                       # Number of correct BTB predictions (this stat may not work properly.
system.switch_cpus_1.BPredUnit.BTBHits        1233211                       # Number of BTB hits
system.switch_cpus_1.BPredUnit.BTBLookups      2382209                       # Number of BTB lookups
system.switch_cpus_1.BPredUnit.RASInCorrect            2                       # Number of incorrect RAS predictions.
system.switch_cpus_1.BPredUnit.condIncorrect       163080                       # Number of conditional branches incorrect
system.switch_cpus_1.BPredUnit.condPredicted      2066958                       # Number of conditional branches predicted
system.switch_cpus_1.BPredUnit.lookups        2781679                       # Number of BP lookups
system.switch_cpus_1.BPredUnit.usedRAS         246335                       # Number of times the RAS was used to get a target.
system.switch_cpus_1.commit.COM:branches      1390146                       # Number of branches committed
system.switch_cpus_1.commit.COM:bw_lim_events       513705                       # number cycles where commit BW limit reached
system.switch_cpus_1.commit.COM:bw_limited            0                       # number of insts not committed due to BW limits
system.switch_cpus_1.commit.COM:committed_per_cycle::samples     10051772                       # Number of insts commited each cycle
system.switch_cpus_1.commit.COM:committed_per_cycle::mean     1.014065                       # Number of insts commited each cycle
system.switch_cpus_1.commit.COM:committed_per_cycle::stdev     2.100102                       # Number of insts commited each cycle
system.switch_cpus_1.commit.COM:committed_per_cycle::underflows            0      0.00%      0.00% # Number of insts commited each cycle
system.switch_cpus_1.commit.COM:committed_per_cycle::0      7025980     69.90%     69.90% # Number of insts commited each cycle
system.switch_cpus_1.commit.COM:committed_per_cycle::1       968017      9.63%     79.53% # Number of insts commited each cycle
system.switch_cpus_1.commit.COM:committed_per_cycle::2       716138      7.12%     86.65% # Number of insts commited each cycle
system.switch_cpus_1.commit.COM:committed_per_cycle::3       277032      2.76%     89.41% # Number of insts commited each cycle
system.switch_cpus_1.commit.COM:committed_per_cycle::4       223231      2.22%     91.63% # Number of insts commited each cycle
system.switch_cpus_1.commit.COM:committed_per_cycle::5        93463      0.93%     92.56% # Number of insts commited each cycle
system.switch_cpus_1.commit.COM:committed_per_cycle::6       147555      1.47%     94.03% # Number of insts commited each cycle
system.switch_cpus_1.commit.COM:committed_per_cycle::7        86651      0.86%     94.89% # Number of insts commited each cycle
system.switch_cpus_1.commit.COM:committed_per_cycle::8       513705      5.11%    100.00% # Number of insts commited each cycle
system.switch_cpus_1.commit.COM:committed_per_cycle::overflows            0      0.00%    100.00% # Number of insts commited each cycle
system.switch_cpus_1.commit.COM:committed_per_cycle::min_value            0                       # Number of insts commited each cycle
system.switch_cpus_1.commit.COM:committed_per_cycle::max_value            8                       # Number of insts commited each cycle
system.switch_cpus_1.commit.COM:committed_per_cycle::total     10051772                       # Number of insts commited each cycle
system.switch_cpus_1.commit.COM:count        10193155                       # Number of instructions committed
system.switch_cpus_1.commit.COM:loads         1580244                       # Number of loads committed
system.switch_cpus_1.commit.COM:membars             0                       # Number of memory barriers committed
system.switch_cpus_1.commit.COM:refs          2212346                       # Number of memory references committed
system.switch_cpus_1.commit.COM:swp_count            0                       # Number of s/w prefetches committed
system.switch_cpus_1.commit.branchMispredicts       163069                       # The number of times a branch was mispredicted
system.switch_cpus_1.commit.commitCommittedInsts     10193155                       # The number of committed instructions
system.switch_cpus_1.commit.commitSquashedInsts      4363987                       # The number of squashed insts skipped by commit
system.switch_cpus_1.committedInsts          10000003                       # Number of Instructions Simulated
system.switch_cpus_1.committedInsts_total     10000003                       # Number of Instructions Simulated
system.switch_cpus_1.cpi                     1.090805                       # CPI: Cycles Per Instruction
system.switch_cpus_1.cpi_total               1.090805                       # CPI: Total CPI of All Threads
system.switch_cpus_1.decode.DECODE:BlockedCycles      1298441                       # Number of cycles decode is blocked
system.switch_cpus_1.decode.DECODE:BranchMispred           11                       # Number of times decode detected a branch misprediction
system.switch_cpus_1.decode.DECODE:BranchResolved       462137                       # Number of times decode resolved a branch
system.switch_cpus_1.decode.DECODE:DecodedInsts     19301702                       # Number of instructions handled by decode
system.switch_cpus_1.decode.DECODE:IdleCycles      5303031                       # Number of cycles decode is idle
system.switch_cpus_1.decode.DECODE:RunCycles      3432093                       # Number of cycles decode is running
system.switch_cpus_1.decode.DECODE:SquashCycles       822244                       # Number of cycles decode is squashing
system.switch_cpus_1.decode.DECODE:SquashedInsts           46                       # Number of squashed instructions handled by decode
system.switch_cpus_1.decode.DECODE:UnblockCycles        18206                       # Number of cycles decode is unblocking
system.switch_cpus_1.dtb.data_accesses        2877568                       # DTB accesses
system.switch_cpus_1.dtb.data_acv                   0                       # DTB access violations
system.switch_cpus_1.dtb.data_hits            2875966                       # DTB hits
system.switch_cpus_1.dtb.data_misses             1602                       # DTB misses
system.switch_cpus_1.dtb.fetch_accesses             0                       # ITB accesses
system.switch_cpus_1.dtb.fetch_acv                  0                       # ITB acv
system.switch_cpus_1.dtb.fetch_hits                 0                       # ITB hits
system.switch_cpus_1.dtb.fetch_misses               0                       # ITB misses
system.switch_cpus_1.dtb.read_accesses        2222646                       # DTB read accesses
system.switch_cpus_1.dtb.read_acv                   0                       # DTB read access violations
system.switch_cpus_1.dtb.read_hits            2221462                       # DTB read hits
system.switch_cpus_1.dtb.read_misses             1184                       # DTB read misses
system.switch_cpus_1.dtb.write_accesses        654922                       # DTB write accesses
system.switch_cpus_1.dtb.write_acv                  0                       # DTB write access violations
system.switch_cpus_1.dtb.write_hits            654504                       # DTB write hits
system.switch_cpus_1.dtb.write_misses             418                       # DTB write misses
system.switch_cpus_1.fetch.Branches           2781679                       # Number of branches that fetch encountered
system.switch_cpus_1.fetch.CacheLines         2566860                       # Number of cache lines fetched
system.switch_cpus_1.fetch.Cycles             6119115                       # Number of cycles fetch has run and was not squashing or blocked
system.switch_cpus_1.fetch.IcacheSquashes        48641                       # Number of outstanding Icache misses that were squashed
system.switch_cpus_1.fetch.Insts             19785727                       # Number of instructions fetch has processed
system.switch_cpus_1.fetch.SquashCycles        455754                       # Number of cycles fetch has spent squashing
system.switch_cpus_1.fetch.branchRate        0.255011                       # Number of branch fetches per cycle
system.switch_cpus_1.fetch.icacheStallCycles      2566860                       # Number of cycles fetch is stalled on an Icache miss
system.switch_cpus_1.fetch.predictedBranches      1479546                       # Number of branches that fetch has predicted taken
system.switch_cpus_1.fetch.rate              1.813863                       # Number of inst fetches per cycle
system.switch_cpus_1.fetch.rateDist::samples     10874016                       # Number of instructions fetched each cycle (Total)
system.switch_cpus_1.fetch.rateDist::mean     1.819542                       # Number of instructions fetched each cycle (Total)
system.switch_cpus_1.fetch.rateDist::stdev     2.938429                       # Number of instructions fetched each cycle (Total)
system.switch_cpus_1.fetch.rateDist::underflows            0      0.00%      0.00% # Number of instructions fetched each cycle (Total)
system.switch_cpus_1.fetch.rateDist::0        7321769     67.33%     67.33% # Number of instructions fetched each cycle (Total)
system.switch_cpus_1.fetch.rateDist::1         198214      1.82%     69.16% # Number of instructions fetched each cycle (Total)
system.switch_cpus_1.fetch.rateDist::2         182466      1.68%     70.83% # Number of instructions fetched each cycle (Total)
system.switch_cpus_1.fetch.rateDist::3         532326      4.90%     75.73% # Number of instructions fetched each cycle (Total)
system.switch_cpus_1.fetch.rateDist::4         437844      4.03%     79.76% # Number of instructions fetched each cycle (Total)
system.switch_cpus_1.fetch.rateDist::5         247666      2.28%     82.03% # Number of instructions fetched each cycle (Total)
system.switch_cpus_1.fetch.rateDist::6         422738      3.89%     85.92% # Number of instructions fetched each cycle (Total)
system.switch_cpus_1.fetch.rateDist::7         148475      1.37%     87.29% # Number of instructions fetched each cycle (Total)
system.switch_cpus_1.fetch.rateDist::8        1382518     12.71%    100.00% # Number of instructions fetched each cycle (Total)
system.switch_cpus_1.fetch.rateDist::overflows            0      0.00%    100.00% # Number of instructions fetched each cycle (Total)
system.switch_cpus_1.fetch.rateDist::min_value            0                       # Number of instructions fetched each cycle (Total)
system.switch_cpus_1.fetch.rateDist::max_value            8                       # Number of instructions fetched each cycle (Total)
system.switch_cpus_1.fetch.rateDist::total     10874016                       # Number of instructions fetched each cycle (Total)
system.switch_cpus_1.idleCycles                 34042                       # Total number of cycles that the CPU has spent unscheduled due to idling
system.switch_cpus_1.iew.EXEC:branches        1794506                       # Number of branches executed
system.switch_cpus_1.iew.EXEC:nop              266298                       # number of nop insts executed
system.switch_cpus_1.iew.EXEC:rate           1.112675                       # Inst execution rate
system.switch_cpus_1.iew.EXEC:refs            2948480                       # number of memory reference insts executed
system.switch_cpus_1.iew.EXEC:stores           654922                       # Number of stores executed
system.switch_cpus_1.iew.EXEC:swp                   0                       # number of swp insts executed
system.switch_cpus_1.iew.WB:consumers         9271398                       # num instructions consuming a value
system.switch_cpus_1.iew.WB:count            11564376                       # cumulative count of insts written-back
system.switch_cpus_1.iew.WB:fanout           0.681230                       # average fanout of values written-back
system.switch_cpus_1.iew.WB:penalized               0                       # number of instrctions required to write to 'other' IQ
system.switch_cpus_1.iew.WB:penalized_rate            0                       # fraction of instructions written-back that wrote to 'other' IQ
system.switch_cpus_1.iew.WB:producers         6315951                       # num instructions producing a value
system.switch_cpus_1.iew.WB:rate             1.060168                       # insts written-back per cycle
system.switch_cpus_1.iew.WB:sent             11578102                       # cumulative count of insts sent to commit
system.switch_cpus_1.iew.branchMispredicts       183192                       # Number of branch mispredicts detected at execute
system.switch_cpus_1.iew.iewBlockCycles        577741                       # Number of cycles IEW is blocking
system.switch_cpus_1.iew.iewDispLoadInsts      2438833                       # Number of dispatched load instructions
system.switch_cpus_1.iew.iewDispNonSpecInsts            0                       # Number of dispatched non-speculative instructions
system.switch_cpus_1.iew.iewDispSquashedInsts      1463473                       # Number of squashed instructions skipped by dispatch
system.switch_cpus_1.iew.iewDispStoreInsts       750557                       # Number of dispatched store instructions
system.switch_cpus_1.iew.iewDispatchedInsts     14563581                       # Number of instructions dispatched to IQ
system.switch_cpus_1.iew.iewExecLoadInsts      2293558                       # Number of load instructions executed
system.switch_cpus_1.iew.iewExecSquashedInsts       364470                       # Number of squashed instructions skipped in execute
system.switch_cpus_1.iew.iewExecutedInsts     12137122                       # Number of executed instructions
system.switch_cpus_1.iew.iewIQFullEvents       138065                       # Number of times the IQ has become full, causing a stall
system.switch_cpus_1.iew.iewIdleCycles              0                       # Number of cycles IEW is idle
system.switch_cpus_1.iew.iewLSQFullEvents            0                       # Number of times the LSQ has become full, causing a stall
system.switch_cpus_1.iew.iewSquashCycles       822244                       # Number of cycles IEW is squashing
system.switch_cpus_1.iew.iewUnblockCycles       141921                       # Number of cycles IEW is unblocking
system.switch_cpus_1.iew.lsq.thread.0.blockedLoads            0                       # Number of blocked loads due to partial load-store forwarding
system.switch_cpus_1.iew.lsq.thread.0.cacheBlocked       540992                       # Number of times an access to memory failed due to the cache being blocked
system.switch_cpus_1.iew.lsq.thread.0.forwLoads       252149                       # Number of loads that had data forwarded from stores
system.switch_cpus_1.iew.lsq.thread.0.ignoredResponses           11                       # Number of memory responses ignored because the instruction is squashed
system.switch_cpus_1.iew.lsq.thread.0.invAddrLoads            0                       # Number of loads ignored due to an invalid address
system.switch_cpus_1.iew.lsq.thread.0.invAddrSwpfs            0                       # Number of software prefetches ignored due to an invalid address
system.switch_cpus_1.iew.lsq.thread.0.memOrderViolation          124                       # Number of memory ordering violations
system.switch_cpus_1.iew.lsq.thread.0.rescheduledLoads            0                       # Number of loads that were rescheduled
system.switch_cpus_1.iew.lsq.thread.0.squashedLoads       858566                       # Number of loads squashed
system.switch_cpus_1.iew.lsq.thread.0.squashedStores       118451                       # Number of stores squashed
system.switch_cpus_1.iew.memOrderViolationEvents          124                       # Number of memory order violations
system.switch_cpus_1.iew.predictedNotTakenIncorrect        41291                       # Number of branches that were predicted not taken incorrectly
system.switch_cpus_1.iew.predictedTakenIncorrect       141901                       # Number of branches that were predicted taken incorrectly
system.switch_cpus_1.ipc                     0.916754                       # IPC: Instructions Per Cycle
system.switch_cpus_1.ipc_total               0.916754                       # IPC: Total IPC of All Threads
system.switch_cpus_1.iq.ISSUE:FU_type_0::No_OpClass            0      0.00%      0.00% # Type of FU issued
system.switch_cpus_1.iq.ISSUE:FU_type_0::IntAlu      4896109     39.16%     39.16% # Type of FU issued
system.switch_cpus_1.iq.ISSUE:FU_type_0::IntMult        35126      0.28%     39.44% # Type of FU issued
system.switch_cpus_1.iq.ISSUE:FU_type_0::IntDiv            0      0.00%     39.44% # Type of FU issued
system.switch_cpus_1.iq.ISSUE:FU_type_0::FloatAdd      2270411     18.16%     57.61% # Type of FU issued
system.switch_cpus_1.iq.ISSUE:FU_type_0::FloatCmp       258530      2.07%     59.67% # Type of FU issued
system.switch_cpus_1.iq.ISSUE:FU_type_0::FloatCvt       106569      0.85%     60.53% # Type of FU issued
system.switch_cpus_1.iq.ISSUE:FU_type_0::FloatMult      1503340     12.03%     72.55% # Type of FU issued
system.switch_cpus_1.iq.ISSUE:FU_type_0::FloatDiv       352764      2.82%     75.37% # Type of FU issued
system.switch_cpus_1.iq.ISSUE:FU_type_0::FloatSqrt        35119      0.28%     75.65% # Type of FU issued
system.switch_cpus_1.iq.ISSUE:FU_type_0::MemRead      2386727     19.09%     94.75% # Type of FU issued
system.switch_cpus_1.iq.ISSUE:FU_type_0::MemWrite       656899      5.25%    100.00% # Type of FU issued
system.switch_cpus_1.iq.ISSUE:FU_type_0::IprAccess            0      0.00%    100.00% # Type of FU issued
system.switch_cpus_1.iq.ISSUE:FU_type_0::InstPrefetch            0      0.00%    100.00% # Type of FU issued
system.switch_cpus_1.iq.ISSUE:FU_type_0::total     12501594                       # Type of FU issued
system.switch_cpus_1.iq.ISSUE:fu_busy_cnt       463023                       # FU busy when requested
system.switch_cpus_1.iq.ISSUE:fu_busy_rate     0.037037                       # FU busy rate (busy events/executed inst)
system.switch_cpus_1.iq.ISSUE:fu_full::No_OpClass            0      0.00%      0.00% # attempts to use FU when none available
system.switch_cpus_1.iq.ISSUE:fu_full::IntAlu        15996      3.45%      3.45% # attempts to use FU when none available
system.switch_cpus_1.iq.ISSUE:fu_full::IntMult            0      0.00%      3.45% # attempts to use FU when none available
system.switch_cpus_1.iq.ISSUE:fu_full::IntDiv            0      0.00%      3.45% # attempts to use FU when none available
system.switch_cpus_1.iq.ISSUE:fu_full::FloatAdd         4567      0.99%      4.44% # attempts to use FU when none available
system.switch_cpus_1.iq.ISSUE:fu_full::FloatCmp           43      0.01%      4.45% # attempts to use FU when none available
system.switch_cpus_1.iq.ISSUE:fu_full::FloatCvt            0      0.00%      4.45% # attempts to use FU when none available
system.switch_cpus_1.iq.ISSUE:fu_full::FloatMult       260769     56.32%     60.77% # attempts to use FU when none available
system.switch_cpus_1.iq.ISSUE:fu_full::FloatDiv       115280     24.90%     85.67% # attempts to use FU when none available
system.switch_cpus_1.iq.ISSUE:fu_full::FloatSqrt            0      0.00%     85.67% # attempts to use FU when none available
system.switch_cpus_1.iq.ISSUE:fu_full::MemRead        65572     14.16%     99.83% # attempts to use FU when none available
system.switch_cpus_1.iq.ISSUE:fu_full::MemWrite          796      0.17%    100.00% # attempts to use FU when none available
system.switch_cpus_1.iq.ISSUE:fu_full::IprAccess            0      0.00%    100.00% # attempts to use FU when none available
system.switch_cpus_1.iq.ISSUE:fu_full::InstPrefetch            0      0.00%    100.00% # attempts to use FU when none available
system.switch_cpus_1.iq.ISSUE:issued_per_cycle::samples     10874016                       # Number of insts issued each cycle
system.switch_cpus_1.iq.ISSUE:issued_per_cycle::mean     1.149676                       # Number of insts issued each cycle
system.switch_cpus_1.iq.ISSUE:issued_per_cycle::stdev     1.595393                       # Number of insts issued each cycle
system.switch_cpus_1.iq.ISSUE:issued_per_cycle::underflows            0      0.00%      0.00% # Number of insts issued each cycle
system.switch_cpus_1.iq.ISSUE:issued_per_cycle::0      5754318     52.92%     52.92% # Number of insts issued each cycle
system.switch_cpus_1.iq.ISSUE:issued_per_cycle::1      1727580     15.89%     68.81% # Number of insts issued each cycle
system.switch_cpus_1.iq.ISSUE:issued_per_cycle::2      1430755     13.16%     81.96% # Number of insts issued each cycle
system.switch_cpus_1.iq.ISSUE:issued_per_cycle::3       828026      7.61%     89.58% # Number of insts issued each cycle
system.switch_cpus_1.iq.ISSUE:issued_per_cycle::4       598349      5.50%     95.08% # Number of insts issued each cycle
system.switch_cpus_1.iq.ISSUE:issued_per_cycle::5       275631      2.53%     97.61% # Number of insts issued each cycle
system.switch_cpus_1.iq.ISSUE:issued_per_cycle::6       176934      1.63%     99.24% # Number of insts issued each cycle
system.switch_cpus_1.iq.ISSUE:issued_per_cycle::7        64113      0.59%     99.83% # Number of insts issued each cycle
system.switch_cpus_1.iq.ISSUE:issued_per_cycle::8        18310      0.17%    100.00% # Number of insts issued each cycle
system.switch_cpus_1.iq.ISSUE:issued_per_cycle::overflows            0      0.00%    100.00% # Number of insts issued each cycle
system.switch_cpus_1.iq.ISSUE:issued_per_cycle::min_value            0                       # Number of insts issued each cycle
system.switch_cpus_1.iq.ISSUE:issued_per_cycle::max_value            8                       # Number of insts issued each cycle
system.switch_cpus_1.iq.ISSUE:issued_per_cycle::total     10874016                       # Number of insts issued each cycle
system.switch_cpus_1.iq.ISSUE:rate           1.146088                       # Inst issue rate
system.switch_cpus_1.iq.iqInstsAdded         14297283                       # Number of instructions added to the IQ (excludes non-spec)
system.switch_cpus_1.iq.iqInstsIssued        12501594                       # Number of instructions issued
system.switch_cpus_1.iq.iqSquashedInstsExamined      4297068                       # Number of squashed instructions iterated over during squash; mainly for profiling
system.switch_cpus_1.iq.iqSquashedInstsIssued        77198                       # Number of squashed instructions issued
system.switch_cpus_1.iq.iqSquashedOperandsExamined      3860560                       # Number of squashed operands that are examined and possibly removed from graph
system.switch_cpus_1.itb.data_accesses              0                       # DTB accesses
system.switch_cpus_1.itb.data_acv                   0                       # DTB access violations
system.switch_cpus_1.itb.data_hits                  0                       # DTB hits
system.switch_cpus_1.itb.data_misses                0                       # DTB misses
system.switch_cpus_1.itb.fetch_accesses       2566868                       # ITB accesses
system.switch_cpus_1.itb.fetch_acv                  0                       # ITB acv
system.switch_cpus_1.itb.fetch_hits           2566860                       # ITB hits
system.switch_cpus_1.itb.fetch_misses               8                       # ITB misses
system.switch_cpus_1.itb.read_accesses              0                       # DTB read accesses
system.switch_cpus_1.itb.read_acv                   0                       # DTB read access violations
system.switch_cpus_1.itb.read_hits                  0                       # DTB read hits
system.switch_cpus_1.itb.read_misses                0                       # DTB read misses
system.switch_cpus_1.itb.write_accesses             0                       # DTB write accesses
system.switch_cpus_1.itb.write_acv                  0                       # DTB write access violations
system.switch_cpus_1.itb.write_hits                 0                       # DTB write hits
system.switch_cpus_1.itb.write_misses               0                       # DTB write misses
system.switch_cpus_1.memDep0.conflictingLoads       561936                       # Number of conflicting loads.
system.switch_cpus_1.memDep0.conflictingStores       151057                       # Number of conflicting stores.
system.switch_cpus_1.memDep0.insertedLoads      2438833                       # Number of loads inserted to the mem dependence unit.
system.switch_cpus_1.memDep0.insertedStores       750557                       # Number of stores inserted to the mem dependence unit.
system.switch_cpus_1.numCycles               10908058                       # number of cpu cycles simulated
system.switch_cpus_1.rename.RENAME:BlockCycles       990225                       # Number of cycles rename is blocking
system.switch_cpus_1.rename.RENAME:CommittedMaps      8012869                       # Number of HB maps that are committed
system.switch_cpus_1.rename.RENAME:IQFullEvents       143170                       # Number of times rename has blocked due to IQ full
system.switch_cpus_1.rename.RENAME:IdleCycles      5471402                       # Number of cycles rename is idle
system.switch_cpus_1.rename.RENAME:LSQFullEvents       104234                       # Number of times rename has blocked due to LSQ full
system.switch_cpus_1.rename.RENAME:ROBFullEvents          182                       # Number of times rename has blocked due to ROB full
system.switch_cpus_1.rename.RENAME:RenameLookups     28240496                       # Number of register rename lookups that rename has made
system.switch_cpus_1.rename.RENAME:RenamedInsts     18745497                       # Number of instructions processed by rename
system.switch_cpus_1.rename.RENAME:RenamedOperands     15084318                       # Number of destination operands rename has renamed
system.switch_cpus_1.rename.RENAME:RunCycles      3303321                       # Number of cycles rename is running
system.switch_cpus_1.rename.RENAME:SquashCycles       822244                       # Number of cycles rename is squashing
system.switch_cpus_1.rename.RENAME:UnblockCycles       286823                       # Number of cycles rename is unblocking
system.switch_cpus_1.rename.RENAME:UndoneMaps      7071348                       # Number of HB maps that are undone due to squashing
system.switch_cpus_1.rename.RENAME:serializeStallCycles            0                       # count of cycles rename stalled for serializing inst
system.switch_cpus_1.rename.RENAME:serializingInsts            0                       # count of serializing insts renamed
system.switch_cpus_1.rename.RENAME:skidInsts       746113                       # count of insts added to the skid buffer
system.switch_cpus_1.rename.RENAME:tempSerializingInsts            0                       # count of temporary serializing insts renamed
system.switch_cpus_1.timesIdled                 10898                       # Number of times that the entire CPU went into an idle state and unscheduled itself

---------- End Simulation Statistics   ----------
