
---------- Begin Simulation Statistics ----------
host_inst_rate                                 109585                       # Simulator instruction rate (inst/s)
host_mem_usage                                 333800                       # Number of bytes of host memory used
host_seconds                                   182.51                       # Real time elapsed on the host
host_tick_rate                             1772671409                       # Simulator tick rate (ticks/s)
sim_freq                                 1000000000000                       # Frequency of simulated ticks
sim_insts                                    20000003                       # Number of instructions simulated
sim_seconds                                  0.323526                       # Number of seconds simulated
sim_ticks                                323526093000                       # Number of ticks simulated
system.cpu.dcache.ReadReq_accesses            5606953                       # number of ReadReq accesses(hits+misses)
system.cpu.dcache.ReadReq_avg_miss_latency 120135.077608                       # average ReadReq miss latency
system.cpu.dcache.ReadReq_avg_mshr_miss_latency 116893.092160                       # average ReadReq mshr miss latency
system.cpu.dcache.ReadReq_hits                2081476                       # number of ReadReq hits
system.cpu.dcache.ReadReq_miss_latency   423533453000                       # number of ReadReq miss cycles
system.cpu.dcache.ReadReq_miss_rate          0.628769                       # miss rate for ReadReq accesses
system.cpu.dcache.ReadReq_misses              3525477                       # number of ReadReq misses
system.cpu.dcache.ReadReq_mshr_hits              4463                       # number of ReadReq MSHR hits
system.cpu.dcache.ReadReq_mshr_miss_latency 411582214000                       # number of ReadReq MSHR miss cycles
system.cpu.dcache.ReadReq_mshr_miss_rate     0.627973                       # mshr miss rate for ReadReq accesses
system.cpu.dcache.ReadReq_mshr_misses         3521014                       # number of ReadReq MSHR misses
system.cpu.dcache.WriteReq_accesses            293301                       # number of WriteReq accesses(hits+misses)
system.cpu.dcache.WriteReq_avg_miss_latency 130829.797077                       # average WriteReq miss latency
system.cpu.dcache.WriteReq_avg_mshr_miss_latency 125039.787390                       # average WriteReq mshr miss latency
system.cpu.dcache.WriteReq_hits                285569                       # number of WriteReq hits
system.cpu.dcache.WriteReq_miss_latency    1011575991                       # number of WriteReq miss cycles
system.cpu.dcache.WriteReq_miss_rate         0.026362                       # miss rate for WriteReq accesses
system.cpu.dcache.WriteReq_misses                7732                       # number of WriteReq misses
system.cpu.dcache.WriteReq_mshr_hits             2831                       # number of WriteReq MSHR hits
system.cpu.dcache.WriteReq_mshr_miss_latency    612819998                       # number of WriteReq MSHR miss cycles
system.cpu.dcache.WriteReq_mshr_miss_rate     0.016710                       # mshr miss rate for WriteReq accesses
system.cpu.dcache.WriteReq_mshr_misses           4901                       # number of WriteReq MSHR misses
system.cpu.dcache.avg_blocked_cycles::no_mshrs 23062.250000                       # average number of cycles each access was blocked
system.cpu.dcache.avg_blocked_cycles::no_targets 124754.170686                       # average number of cycles each access was blocked
system.cpu.dcache.avg_refs                   0.671825                       # Average number of references to valid blocks.
system.cpu.dcache.blocked::no_mshrs                 8                       # number of cycles access was blocked
system.cpu.dcache.blocked::no_targets             539                       # number of cycles access was blocked
system.cpu.dcache.blocked_cycles::no_mshrs       184498                       # number of cycles access was blocked
system.cpu.dcache.blocked_cycles::no_targets     67242498                       # number of cycles access was blocked
system.cpu.dcache.cache_copies                      0                       # number of cache copies performed
system.cpu.dcache.demand_accesses             5900254                       # number of demand (read+write) accesses
system.cpu.dcache.demand_avg_miss_latency 120158.481706                       # average overall miss latency
system.cpu.dcache.demand_avg_mshr_miss_latency 116904.416016                       # average overall mshr miss latency
system.cpu.dcache.demand_hits                 2367045                       # number of demand (read+write) hits
system.cpu.dcache.demand_miss_latency    424545028991                       # number of demand (read+write) miss cycles
system.cpu.dcache.demand_miss_rate           0.598823                       # miss rate for demand accesses
system.cpu.dcache.demand_misses               3533209                       # number of demand (read+write) misses
system.cpu.dcache.demand_mshr_hits               7294                       # number of demand (read+write) MSHR hits
system.cpu.dcache.demand_mshr_miss_latency 412195033998                       # number of demand (read+write) MSHR miss cycles
system.cpu.dcache.demand_mshr_miss_rate      0.597587                       # mshr miss rate for demand accesses
system.cpu.dcache.demand_mshr_misses          3525915                       # number of demand (read+write) MSHR misses
system.cpu.dcache.fast_writes                       0                       # number of fast writes performed
system.cpu.dcache.mshr_cap_events                   0                       # number of times MSHR cap was activated
system.cpu.dcache.no_allocate_misses                0                       # Number of misses that were no-allocate
system.cpu.dcache.occ_%::0                   0.613329                       # Average percentage of cache occupancy
system.cpu.dcache.occ_blocks::0            628.049176                       # Average occupied blocks per context
system.cpu.dcache.overall_accesses            5900254                       # number of overall (read+write) accesses
system.cpu.dcache.overall_avg_miss_latency 120158.481706                       # average overall miss latency
system.cpu.dcache.overall_avg_mshr_miss_latency 116904.416016                       # average overall mshr miss latency
system.cpu.dcache.overall_avg_mshr_uncacheable_latency     no_value                       # average overall mshr uncacheable latency
system.cpu.dcache.overall_hits                2367045                       # number of overall hits
system.cpu.dcache.overall_miss_latency   424545028991                       # number of overall miss cycles
system.cpu.dcache.overall_miss_rate          0.598823                       # miss rate for overall accesses
system.cpu.dcache.overall_misses              3533209                       # number of overall misses
system.cpu.dcache.overall_mshr_hits              7294                       # number of overall MSHR hits
system.cpu.dcache.overall_mshr_miss_latency 412195033998                       # number of overall MSHR miss cycles
system.cpu.dcache.overall_mshr_miss_rate     0.597587                       # mshr miss rate for overall accesses
system.cpu.dcache.overall_mshr_misses         3525915                       # number of overall MSHR misses
system.cpu.dcache.overall_mshr_uncacheable_latency            0                       # number of overall MSHR uncacheable cycles
system.cpu.dcache.overall_mshr_uncacheable_misses            0                       # number of overall MSHR uncacheable misses
system.cpu.dcache.prefetch_accuracy          no_value                       # ratio of good prefetches to total prefetches
system.cpu.dcache.prefetch_hits                     0                       # number of prefetched blocks that were accessed
system.cpu.dcache.replacements                3524211                       # number of replacements
system.cpu.dcache.sampled_refs                3525062                       # Sample count of references to valid blocks.
system.cpu.dcache.soft_prefetch_mshr_full            0                       # number of mshr full events for SW prefetching instrutions
system.cpu.dcache.tagsinuse                628.049176                       # Cycle average of tags in use
system.cpu.dcache.total_refs                  2368224                       # Total number of references to valid blocks.
system.cpu.dcache.warmup_cycle                      0                       # Cycle when the warmup percentage was hit.
system.cpu.dcache.writebacks                     4507                       # number of writebacks
system.cpu.dtb.data_accesses                        0                       # DTB accesses
system.cpu.dtb.data_acv                             0                       # DTB access violations
system.cpu.dtb.data_hits                            0                       # DTB hits
system.cpu.dtb.data_misses                          0                       # DTB misses
system.cpu.dtb.fetch_accesses                       0                       # ITB accesses
system.cpu.dtb.fetch_acv                            0                       # ITB acv
system.cpu.dtb.fetch_hits                           0                       # ITB hits
system.cpu.dtb.fetch_misses                         0                       # ITB misses
system.cpu.dtb.read_accesses                        0                       # DTB read accesses
system.cpu.dtb.read_acv                             0                       # DTB read access violations
system.cpu.dtb.read_hits                            0                       # DTB read hits
system.cpu.dtb.read_misses                          0                       # DTB read misses
system.cpu.dtb.write_accesses                       0                       # DTB write accesses
system.cpu.dtb.write_acv                            0                       # DTB write access violations
system.cpu.dtb.write_hits                           0                       # DTB write hits
system.cpu.dtb.write_misses                         0                       # DTB write misses
system.cpu.icache.ReadReq_accesses           13510082                       # number of ReadReq accesses(hits+misses)
system.cpu.icache.ReadReq_avg_miss_latency 69674.493715                       # average ReadReq miss latency
system.cpu.icache.ReadReq_avg_mshr_miss_latency 63949.757986                       # average ReadReq mshr miss latency
system.cpu.icache.ReadReq_hits               13504354                       # number of ReadReq hits
system.cpu.icache.ReadReq_miss_latency      399095500                       # number of ReadReq miss cycles
system.cpu.icache.ReadReq_miss_rate          0.000424                       # miss rate for ReadReq accesses
system.cpu.icache.ReadReq_misses                 5728                       # number of ReadReq misses
system.cpu.icache.ReadReq_mshr_hits               562                       # number of ReadReq MSHR hits
system.cpu.icache.ReadReq_mshr_miss_latency    330300500                       # number of ReadReq MSHR miss cycles
system.cpu.icache.ReadReq_mshr_miss_rate     0.000382                       # mshr miss rate for ReadReq accesses
system.cpu.icache.ReadReq_mshr_misses            5165                       # number of ReadReq MSHR misses
system.cpu.icache.avg_blocked_cycles::no_mshrs     no_value                       # average number of cycles each access was blocked
system.cpu.icache.avg_blocked_cycles::no_targets        73500                       # average number of cycles each access was blocked
system.cpu.icache.avg_refs                2614.083237                       # Average number of references to valid blocks.
system.cpu.icache.blocked::no_mshrs                 0                       # number of cycles access was blocked
system.cpu.icache.blocked::no_targets               1                       # number of cycles access was blocked
system.cpu.icache.blocked_cycles::no_mshrs            0                       # number of cycles access was blocked
system.cpu.icache.blocked_cycles::no_targets        73500                       # number of cycles access was blocked
system.cpu.icache.cache_copies                      0                       # number of cache copies performed
system.cpu.icache.demand_accesses            13510082                       # number of demand (read+write) accesses
system.cpu.icache.demand_avg_miss_latency 69674.493715                       # average overall miss latency
system.cpu.icache.demand_avg_mshr_miss_latency 63949.757986                       # average overall mshr miss latency
system.cpu.icache.demand_hits                13504354                       # number of demand (read+write) hits
system.cpu.icache.demand_miss_latency       399095500                       # number of demand (read+write) miss cycles
system.cpu.icache.demand_miss_rate           0.000424                       # miss rate for demand accesses
system.cpu.icache.demand_misses                  5728                       # number of demand (read+write) misses
system.cpu.icache.demand_mshr_hits                562                       # number of demand (read+write) MSHR hits
system.cpu.icache.demand_mshr_miss_latency    330300500                       # number of demand (read+write) MSHR miss cycles
system.cpu.icache.demand_mshr_miss_rate      0.000382                       # mshr miss rate for demand accesses
system.cpu.icache.demand_mshr_misses             5165                       # number of demand (read+write) MSHR misses
system.cpu.icache.fast_writes                       0                       # number of fast writes performed
system.cpu.icache.mshr_cap_events                   0                       # number of times MSHR cap was activated
system.cpu.icache.no_allocate_misses                0                       # Number of misses that were no-allocate
system.cpu.icache.occ_%::0                   0.365487                       # Average percentage of cache occupancy
system.cpu.icache.occ_blocks::0            187.129310                       # Average occupied blocks per context
system.cpu.icache.overall_accesses           13510082                       # number of overall (read+write) accesses
system.cpu.icache.overall_avg_miss_latency 69674.493715                       # average overall miss latency
system.cpu.icache.overall_avg_mshr_miss_latency 63949.757986                       # average overall mshr miss latency
system.cpu.icache.overall_avg_mshr_uncacheable_latency     no_value                       # average overall mshr uncacheable latency
system.cpu.icache.overall_hits               13504354                       # number of overall hits
system.cpu.icache.overall_miss_latency      399095500                       # number of overall miss cycles
system.cpu.icache.overall_miss_rate          0.000424                       # miss rate for overall accesses
system.cpu.icache.overall_misses                 5728                       # number of overall misses
system.cpu.icache.overall_mshr_hits               562                       # number of overall MSHR hits
system.cpu.icache.overall_mshr_miss_latency    330300500                       # number of overall MSHR miss cycles
system.cpu.icache.overall_mshr_miss_rate     0.000382                       # mshr miss rate for overall accesses
system.cpu.icache.overall_mshr_misses            5165                       # number of overall MSHR misses
system.cpu.icache.overall_mshr_uncacheable_latency            0                       # number of overall MSHR uncacheable cycles
system.cpu.icache.overall_mshr_uncacheable_misses            0                       # number of overall MSHR uncacheable misses
system.cpu.icache.prefetch_accuracy          no_value                       # ratio of good prefetches to total prefetches
system.cpu.icache.prefetch_hits                     0                       # number of prefetched blocks that were accessed
system.cpu.icache.replacements                   4957                       # number of replacements
system.cpu.icache.sampled_refs                   5166                       # Sample count of references to valid blocks.
system.cpu.icache.soft_prefetch_mshr_full            0                       # number of mshr full events for SW prefetching instrutions
system.cpu.icache.tagsinuse                187.129310                       # Cycle average of tags in use
system.cpu.icache.total_refs                 13504354                       # Total number of references to valid blocks.
system.cpu.icache.warmup_cycle                      0                       # Cycle when the warmup percentage was hit.
system.cpu.icache.writebacks                        0                       # number of writebacks
system.cpu.idle_fraction                            0                       # Percentage of idle cycles
system.cpu.itb.data_accesses                        0                       # DTB accesses
system.cpu.itb.data_acv                             0                       # DTB access violations
system.cpu.itb.data_hits                            0                       # DTB hits
system.cpu.itb.data_misses                          0                       # DTB misses
system.cpu.itb.fetch_accesses                       2                       # ITB accesses
system.cpu.itb.fetch_acv                            0                       # ITB acv
system.cpu.itb.fetch_hits                           2                       # ITB hits
system.cpu.itb.fetch_misses                         0                       # ITB misses
system.cpu.itb.read_accesses                        0                       # DTB read accesses
system.cpu.itb.read_acv                             0                       # DTB read access violations
system.cpu.itb.read_hits                            0                       # DTB read hits
system.cpu.itb.read_misses                          0                       # DTB read misses
system.cpu.itb.write_accesses                       0                       # DTB write accesses
system.cpu.itb.write_acv                            0                       # DTB write access violations
system.cpu.itb.write_hits                           0                       # DTB write hits
system.cpu.itb.write_misses                         0                       # DTB write misses
system.cpu.not_idle_fraction                        1                       # Percentage of non-idle cycles
system.cpu.numCycles                                2                       # number of cpu cycles simulated
system.cpu.num_insts                                2                       # Number of instructions executed
system.cpu.num_refs                                 0                       # Number of memory references
system.cpu.workload.PROG:num_syscalls               3                       # Number of system calls
system.l2.HardPFReq_avg_mshr_miss_latency 84163.735884                       # average HardPFReq mshr miss latency
system.l2.HardPFReq_mshr_miss_latency    852165905542                       # number of HardPFReq MSHR miss cycles
system.l2.HardPFReq_mshr_miss_rate                inf                       # mshr miss rate for HardPFReq accesses
system.l2.HardPFReq_mshr_misses              10125096                       # number of HardPFReq MSHR misses
system.l2.ReadExReq_accesses                     4049                       # number of ReadExReq accesses(hits+misses)
system.l2.ReadExReq_avg_miss_latency     134206.809936                       # average ReadExReq miss latency
system.l2.ReadExReq_avg_mshr_miss_latency 119519.842387                       # average ReadExReq mshr miss latency
system.l2.ReadExReq_hits                          466                       # number of ReadExReq hits
system.l2.ReadExReq_miss_latency            480863000                       # number of ReadExReq miss cycles
system.l2.ReadExReq_miss_rate                0.884910                       # miss rate for ReadExReq accesses
system.l2.ReadExReq_misses                       3583                       # number of ReadExReq misses
system.l2.ReadExReq_mshr_hits                      30                       # number of ReadExReq MSHR hits
system.l2.ReadExReq_mshr_miss_latency       424654000                       # number of ReadExReq MSHR miss cycles
system.l2.ReadExReq_mshr_miss_rate           0.877501                       # mshr miss rate for ReadExReq accesses
system.l2.ReadExReq_mshr_misses                  3553                       # number of ReadExReq MSHR misses
system.l2.ReadReq_accesses                    3526180                       # number of ReadReq accesses(hits+misses)
system.l2.ReadReq_avg_miss_latency       115601.876173                       # average ReadReq miss latency
system.l2.ReadReq_avg_mshr_miss_latency  122579.807389                       # average ReadReq mshr miss latency
system.l2.ReadReq_hits                           3531                       # number of ReadReq hits
system.l2.ReadReq_miss_latency           407224833500                       # number of ReadReq miss cycles
system.l2.ReadReq_miss_rate                  0.998999                       # miss rate for ReadReq accesses
system.l2.ReadReq_misses                      3522649                       # number of ReadReq misses
system.l2.ReadReq_mshr_hits                    853221                       # number of ReadReq MSHR hits
system.l2.ReadReq_mshr_miss_latency      327217847500                       # number of ReadReq MSHR miss cycles
system.l2.ReadReq_mshr_miss_rate             0.757031                       # mshr miss rate for ReadReq accesses
system.l2.ReadReq_mshr_misses                 2669427                       # number of ReadReq MSHR misses
system.l2.UpgradeReq_accesses                     912                       # number of UpgradeReq accesses(hits+misses)
system.l2.UpgradeReq_avg_miss_latency    125585.071350                       # average UpgradeReq miss latency
system.l2.UpgradeReq_avg_mshr_miss_latency 110577.387486                       # average UpgradeReq mshr miss latency
system.l2.UpgradeReq_hits                           1                       # number of UpgradeReq hits
system.l2.UpgradeReq_miss_latency           114408000                       # number of UpgradeReq miss cycles
system.l2.UpgradeReq_miss_rate               0.998904                       # miss rate for UpgradeReq accesses
system.l2.UpgradeReq_misses                       911                       # number of UpgradeReq misses
system.l2.UpgradeReq_mshr_miss_latency      100736000                       # number of UpgradeReq MSHR miss cycles
system.l2.UpgradeReq_mshr_miss_rate          0.998904                       # mshr miss rate for UpgradeReq accesses
system.l2.UpgradeReq_mshr_misses                  911                       # number of UpgradeReq MSHR misses
system.l2.Writeback_accesses                     4507                       # number of Writeback accesses(hits+misses)
system.l2.Writeback_hits                         4507                       # number of Writeback hits
system.l2.avg_blocked_cycles::no_mshrs       no_value                       # average number of cycles each access was blocked
system.l2.avg_blocked_cycles::no_targets     no_value                       # average number of cycles each access was blocked
system.l2.avg_refs                           0.000463                       # Average number of references to valid blocks.
system.l2.blocked::no_mshrs                         0                       # number of cycles access was blocked
system.l2.blocked::no_targets                       0                       # number of cycles access was blocked
system.l2.blocked_cycles::no_mshrs                  0                       # number of cycles access was blocked
system.l2.blocked_cycles::no_targets                0                       # number of cycles access was blocked
system.l2.cache_copies                              0                       # number of cache copies performed
system.l2.demand_accesses                     3530229                       # number of demand (read+write) accesses
system.l2.demand_avg_miss_latency        115620.780624                       # average overall miss latency
system.l2.demand_avg_mshr_miss_latency   122575.739998                       # average overall mshr miss latency
system.l2.demand_hits                            3997                       # number of demand (read+write) hits
system.l2.demand_miss_latency            407705696500                       # number of demand (read+write) miss cycles
system.l2.demand_miss_rate                   0.998868                       # miss rate for demand accesses
system.l2.demand_misses                       3526232                       # number of demand (read+write) misses
system.l2.demand_mshr_hits                     853251                       # number of demand (read+write) MSHR hits
system.l2.demand_mshr_miss_latency       327642501500                       # number of demand (read+write) MSHR miss cycles
system.l2.demand_mshr_miss_rate              0.757169                       # mshr miss rate for demand accesses
system.l2.demand_mshr_misses                  2672980                       # number of demand (read+write) MSHR misses
system.l2.fast_writes                               0                       # number of fast writes performed
system.l2.mshr_cap_events                           0                       # number of times MSHR cap was activated
system.l2.no_allocate_misses                        0                       # Number of misses that were no-allocate
system.l2.occ_%::0                           0.998849                       # Average percentage of cache occupancy
system.l2.occ_%::1                           0.000195                       # Average percentage of cache occupancy
system.l2.occ_blocks::0                  16365.139086                       # Average occupied blocks per context
system.l2.occ_blocks::1                      3.202608                       # Average occupied blocks per context
system.l2.overall_accesses                    3530229                       # number of overall (read+write) accesses
system.l2.overall_avg_miss_latency       115620.780624                       # average overall miss latency
system.l2.overall_avg_mshr_miss_latency  92186.388567                       # average overall mshr miss latency
system.l2.overall_avg_mshr_uncacheable_latency     no_value                       # average overall mshr uncacheable latency
system.l2.overall_hits                           3997                       # number of overall hits
system.l2.overall_miss_latency           407705696500                       # number of overall miss cycles
system.l2.overall_miss_rate                  0.998868                       # miss rate for overall accesses
system.l2.overall_misses                      3526232                       # number of overall misses
system.l2.overall_mshr_hits                    853251                       # number of overall MSHR hits
system.l2.overall_mshr_miss_latency      1179808407042                       # number of overall MSHR miss cycles
system.l2.overall_mshr_miss_rate             3.625282                       # mshr miss rate for overall accesses
system.l2.overall_mshr_misses                12798076                       # number of overall MSHR misses
system.l2.overall_mshr_uncacheable_latency            0                       # number of overall MSHR uncacheable cycles
system.l2.overall_mshr_uncacheable_misses            0                       # number of overall MSHR uncacheable misses
system.l2.prefetch_accuracy                  0.000382                       # ratio of good prefetches to total prefetches
system.l2.prefetch_hits                          3868                       # number of prefetched blocks that were accessed
system.l2.prefetcher.num_hwpf_already_in_prefetcher      3780424                       # number of hwpf that were already in the prefetch queue
system.l2.prefetcher.num_hwpf_evicted          560434                       # number of hwpf removed due to no buffer left
system.l2.prefetcher.num_hwpf_identified     15381092                       # number of hwpf identified
system.l2.prefetcher.num_hwpf_issued         10132773                       # number of hwpf issued
system.l2.prefetcher.num_hwpf_removed_MSHR_hit       907366                       # number of hwpf removed because MSHR allocated
system.l2.prefetcher.num_hwpf_span_page             0                       # number of hwpf spanning a virtual page
system.l2.prefetcher.num_hwpf_squashed_from_miss            0                       # number of hwpf that got squashed due to a miss aborting calculation time
system.l2.replacements                       12780217                       # number of replacements
system.l2.sampled_refs                       12796601                       # Sample count of references to valid blocks.
system.l2.soft_prefetch_mshr_full                   0                       # number of mshr full events for SW prefetching instrutions
system.l2.tagsinuse                      16368.341694                       # Cycle average of tags in use
system.l2.total_refs                             5926                       # Total number of references to valid blocks.
system.l2.warmup_cycle                   510628435000                       # Cycle when the warmup percentage was hit.
system.l2.writebacks                             4505                       # number of writebacks
system.switch_cpus.dtb.data_accesses          2832022                       # DTB accesses
system.switch_cpus.dtb.data_acv                     0                       # DTB access violations
system.switch_cpus.dtb.data_hits              2558233                       # DTB hits
system.switch_cpus.dtb.data_misses             273789                       # DTB misses
system.switch_cpus.dtb.fetch_accesses               0                       # ITB accesses
system.switch_cpus.dtb.fetch_acv                    0                       # ITB acv
system.switch_cpus.dtb.fetch_hits                   0                       # ITB hits
system.switch_cpus.dtb.fetch_misses                 0                       # ITB misses
system.switch_cpus.dtb.read_accesses          2682476                       # DTB read accesses
system.switch_cpus.dtb.read_acv                     0                       # DTB read access violations
system.switch_cpus.dtb.read_hits              2409028                       # DTB read hits
system.switch_cpus.dtb.read_misses             273448                       # DTB read misses
system.switch_cpus.dtb.write_accesses          149546                       # DTB write accesses
system.switch_cpus.dtb.write_acv                    0                       # DTB write access violations
system.switch_cpus.dtb.write_hits              149205                       # DTB write hits
system.switch_cpus.dtb.write_misses               341                       # DTB write misses
system.switch_cpus.idle_fraction                    1                       # Percentage of idle cycles
system.switch_cpus.itb.data_accesses                0                       # DTB accesses
system.switch_cpus.itb.data_acv                     0                       # DTB access violations
system.switch_cpus.itb.data_hits                    0                       # DTB hits
system.switch_cpus.itb.data_misses                  0                       # DTB misses
system.switch_cpus.itb.fetch_accesses        10273803                       # ITB accesses
system.switch_cpus.itb.fetch_acv                    0                       # ITB acv
system.switch_cpus.itb.fetch_hits            10273790                       # ITB hits
system.switch_cpus.itb.fetch_misses                13                       # ITB misses
system.switch_cpus.itb.read_accesses                0                       # DTB read accesses
system.switch_cpus.itb.read_acv                     0                       # DTB read access violations
system.switch_cpus.itb.read_hits                    0                       # DTB read hits
system.switch_cpus.itb.read_misses                  0                       # DTB read misses
system.switch_cpus.itb.write_accesses               0                       # DTB write accesses
system.switch_cpus.itb.write_acv                    0                       # DTB write access violations
system.switch_cpus.itb.write_hits                   0                       # DTB write hits
system.switch_cpus.itb.write_misses                 0                       # DTB write misses
system.switch_cpus.not_idle_fraction                0                       # Percentage of non-idle cycles
system.switch_cpus.numCycles                349917876                       # number of cpu cycles simulated
system.switch_cpus.num_insts                 10000001                       # Number of instructions executed
system.switch_cpus.num_refs                   2837031                       # Number of memory references
system.switch_cpus_1.BPredUnit.BTBCorrect            0                       # Number of correct BTB predictions (this stat may not work properly.
system.switch_cpus_1.BPredUnit.BTBHits        4550947                       # Number of BTB hits
system.switch_cpus_1.BPredUnit.BTBLookups      4740992                       # Number of BTB lookups
system.switch_cpus_1.BPredUnit.RASInCorrect           28                       # Number of incorrect RAS predictions.
system.switch_cpus_1.BPredUnit.condIncorrect        19949                       # Number of conditional branches incorrect
system.switch_cpus_1.BPredUnit.condPredicted      5241143                       # Number of conditional branches predicted
system.switch_cpus_1.BPredUnit.lookups        5387825                       # Number of BP lookups
system.switch_cpus_1.BPredUnit.usedRAS          53424                       # Number of times the RAS was used to get a target.
system.switch_cpus_1.commit.COM:branches      1639812                       # Number of branches committed
system.switch_cpus_1.commit.COM:bw_lim_events        50621                       # number cycles where commit BW limit reached
system.switch_cpus_1.commit.COM:bw_limited            0                       # number of insts not committed due to BW limits
system.switch_cpus_1.commit.COM:committed_per_cycle::samples     51628628                       # Number of insts commited each cycle
system.switch_cpus_1.commit.COM:committed_per_cycle::mean     0.199768                       # Number of insts commited each cycle
system.switch_cpus_1.commit.COM:committed_per_cycle::stdev     0.637868                       # Number of insts commited each cycle
system.switch_cpus_1.commit.COM:committed_per_cycle::underflows            0      0.00%      0.00% # Number of insts commited each cycle
system.switch_cpus_1.commit.COM:committed_per_cycle::0     44909705     86.99%     86.99% # Number of insts commited each cycle
system.switch_cpus_1.commit.COM:committed_per_cycle::1      4286319      8.30%     95.29% # Number of insts commited each cycle
system.switch_cpus_1.commit.COM:committed_per_cycle::2      2007084      3.89%     99.18% # Number of insts commited each cycle
system.switch_cpus_1.commit.COM:committed_per_cycle::3       137248      0.27%     99.44% # Number of insts commited each cycle
system.switch_cpus_1.commit.COM:committed_per_cycle::4        90960      0.18%     99.62% # Number of insts commited each cycle
system.switch_cpus_1.commit.COM:committed_per_cycle::5        78796      0.15%     99.77% # Number of insts commited each cycle
system.switch_cpus_1.commit.COM:committed_per_cycle::6        36536      0.07%     99.84% # Number of insts commited each cycle
system.switch_cpus_1.commit.COM:committed_per_cycle::7        31359      0.06%     99.90% # Number of insts commited each cycle
system.switch_cpus_1.commit.COM:committed_per_cycle::8        50621      0.10%    100.00% # Number of insts commited each cycle
system.switch_cpus_1.commit.COM:committed_per_cycle::overflows            0      0.00%    100.00% # Number of insts commited each cycle
system.switch_cpus_1.commit.COM:committed_per_cycle::min_value            0                       # Number of insts commited each cycle
system.switch_cpus_1.commit.COM:committed_per_cycle::max_value            8                       # Number of insts commited each cycle
system.switch_cpus_1.commit.COM:committed_per_cycle::total     51628628                       # Number of insts commited each cycle
system.switch_cpus_1.commit.COM:count        10313748                       # Number of instructions committed
system.switch_cpus_1.commit.COM:loads         2510912                       # Number of loads committed
system.switch_cpus_1.commit.COM:membars             0                       # Number of memory barriers committed
system.switch_cpus_1.commit.COM:refs          2655008                       # Number of memory references committed
system.switch_cpus_1.commit.COM:swp_count            0                       # Number of s/w prefetches committed
system.switch_cpus_1.commit.branchMispredicts        19629                       # The number of times a branch was mispredicted
system.switch_cpus_1.commit.commitCommittedInsts     10313748                       # The number of committed instructions
system.switch_cpus_1.commit.commitNonSpecStalls            1                       # The number of times commit has been forced to stall to communicate backwards
system.switch_cpus_1.commit.commitSquashedInsts     21824174                       # The number of squashed insts skipped by commit
system.switch_cpus_1.committedInsts          10000000                       # Number of Instructions Simulated
system.switch_cpus_1.committedInsts_total     10000000                       # Number of Instructions Simulated
system.switch_cpus_1.cpi                    29.713431                       # CPI: Cycles Per Instruction
system.switch_cpus_1.cpi_total              29.713431                       # CPI: Total CPI of All Threads
system.switch_cpus_1.decode.DECODE:BlockedCycles     36800980                       # Number of cycles decode is blocked
system.switch_cpus_1.decode.DECODE:BranchMispred          326                       # Number of times decode detected a branch misprediction
system.switch_cpus_1.decode.DECODE:BranchResolved        90953                       # Number of times decode resolved a branch
system.switch_cpus_1.decode.DECODE:DecodedInsts     33913421                       # Number of instructions handled by decode
system.switch_cpus_1.decode.DECODE:IdleCycles      7708887                       # Number of cycles decode is idle
system.switch_cpus_1.decode.DECODE:RunCycles      6442729                       # Number of cycles decode is running
system.switch_cpus_1.decode.DECODE:SquashCycles      2935251                       # Number of cycles decode is squashing
system.switch_cpus_1.decode.DECODE:SquashedInsts         1323                       # Number of squashed instructions handled by decode
system.switch_cpus_1.decode.DECODE:UnblockCycles       676031                       # Number of cycles decode is unblocking
system.switch_cpus_1.dtb.data_accesses        3995699                       # DTB accesses
system.switch_cpus_1.dtb.data_acv                   0                       # DTB access violations
system.switch_cpus_1.dtb.data_hits            3404474                       # DTB hits
system.switch_cpus_1.dtb.data_misses           591225                       # DTB misses
system.switch_cpus_1.dtb.fetch_accesses             0                       # ITB accesses
system.switch_cpus_1.dtb.fetch_acv                  0                       # ITB acv
system.switch_cpus_1.dtb.fetch_hits                 0                       # ITB hits
system.switch_cpus_1.dtb.fetch_misses               0                       # ITB misses
system.switch_cpus_1.dtb.read_accesses        3828452                       # DTB read accesses
system.switch_cpus_1.dtb.read_acv                   0                       # DTB read access violations
system.switch_cpus_1.dtb.read_hits            3237860                       # DTB read hits
system.switch_cpus_1.dtb.read_misses           590592                       # DTB read misses
system.switch_cpus_1.dtb.write_accesses        167247                       # DTB write accesses
system.switch_cpus_1.dtb.write_acv                  0                       # DTB write access violations
system.switch_cpus_1.dtb.write_hits            166614                       # DTB write hits
system.switch_cpus_1.dtb.write_misses             633                       # DTB write misses
system.switch_cpus_1.fetch.Branches           5387825                       # Number of branches that fetch encountered
system.switch_cpus_1.fetch.CacheLines         3236290                       # Number of cache lines fetched
system.switch_cpus_1.fetch.Cycles            10649193                       # Number of cycles fetch has run and was not squashing or blocked
system.switch_cpus_1.fetch.IcacheSquashes         4399                       # Number of outstanding Icache misses that were squashed
system.switch_cpus_1.fetch.Insts             35349834                       # Number of instructions fetch has processed
system.switch_cpus_1.fetch.SquashCycles        318003                       # Number of cycles fetch has spent squashing
system.switch_cpus_1.fetch.branchRate        0.018133                       # Number of branch fetches per cycle
system.switch_cpus_1.fetch.icacheStallCycles      3236290                       # Number of cycles fetch is stalled on an Icache miss
system.switch_cpus_1.fetch.predictedBranches      4604371                       # Number of branches that fetch has predicted taken
system.switch_cpus_1.fetch.rate              0.118969                       # Number of inst fetches per cycle
system.switch_cpus_1.fetch.rateDist::samples     54563879                       # Number of instructions fetched each cycle (Total)
system.switch_cpus_1.fetch.rateDist::mean     0.647861                       # Number of instructions fetched each cycle (Total)
system.switch_cpus_1.fetch.rateDist::stdev     1.838149                       # Number of instructions fetched each cycle (Total)
system.switch_cpus_1.fetch.rateDist::underflows            0      0.00%      0.00% # Number of instructions fetched each cycle (Total)
system.switch_cpus_1.fetch.rateDist::0       47151057     86.41%     86.41% # Number of instructions fetched each cycle (Total)
system.switch_cpus_1.fetch.rateDist::1         936039      1.72%     88.13% # Number of instructions fetched each cycle (Total)
system.switch_cpus_1.fetch.rateDist::2          74273      0.14%     88.27% # Number of instructions fetched each cycle (Total)
system.switch_cpus_1.fetch.rateDist::3          65608      0.12%     88.39% # Number of instructions fetched each cycle (Total)
system.switch_cpus_1.fetch.rateDist::4        4064745      7.45%     95.84% # Number of instructions fetched each cycle (Total)
system.switch_cpus_1.fetch.rateDist::5          56261      0.10%     95.94% # Number of instructions fetched each cycle (Total)
system.switch_cpus_1.fetch.rateDist::6          81928      0.15%     96.09% # Number of instructions fetched each cycle (Total)
system.switch_cpus_1.fetch.rateDist::7          35172      0.06%     96.15% # Number of instructions fetched each cycle (Total)
system.switch_cpus_1.fetch.rateDist::8        2098796      3.85%    100.00% # Number of instructions fetched each cycle (Total)
system.switch_cpus_1.fetch.rateDist::overflows            0      0.00%    100.00% # Number of instructions fetched each cycle (Total)
system.switch_cpus_1.fetch.rateDist::min_value            0                       # Number of instructions fetched each cycle (Total)
system.switch_cpus_1.fetch.rateDist::max_value            8                       # Number of instructions fetched each cycle (Total)
system.switch_cpus_1.fetch.rateDist::total     54563879                       # Number of instructions fetched each cycle (Total)
system.switch_cpus_1.idleCycles             242570430                       # Total number of cycles that the CPU has spent unscheduled due to idling
system.switch_cpus_1.iew.EXEC:branches        2327508                       # Number of branches executed
system.switch_cpus_1.iew.EXEC:nop              361969                       # number of nop insts executed
system.switch_cpus_1.iew.EXEC:rate           0.047999                       # Inst execution rate
system.switch_cpus_1.iew.EXEC:refs            4002095                       # number of memory reference insts executed
system.switch_cpus_1.iew.EXEC:stores           167247                       # Number of stores executed
system.switch_cpus_1.iew.EXEC:swp                   0                       # number of swp insts executed
system.switch_cpus_1.iew.WB:consumers        12083212                       # num instructions consuming a value
system.switch_cpus_1.iew.WB:count            13646046                       # cumulative count of insts written-back
system.switch_cpus_1.iew.WB:fanout           0.655101                       # average fanout of values written-back
system.switch_cpus_1.iew.WB:penalized               0                       # number of instrctions required to write to 'other' IQ
system.switch_cpus_1.iew.WB:penalized_rate            0                       # fraction of instructions written-back that wrote to 'other' IQ
system.switch_cpus_1.iew.WB:producers         7915720                       # num instructions producing a value
system.switch_cpus_1.iew.WB:rate             0.045926                       # insts written-back per cycle
system.switch_cpus_1.iew.WB:sent             14237814                       # cumulative count of insts sent to commit
system.switch_cpus_1.iew.branchMispredicts        22791                       # Number of branch mispredicts detected at execute
system.switch_cpus_1.iew.iewBlockCycles      25955367                       # Number of cycles IEW is blocking
system.switch_cpus_1.iew.iewDispLoadInsts      8756785                       # Number of dispatched load instructions
system.switch_cpus_1.iew.iewDispNonSpecInsts            1                       # Number of dispatched non-speculative instructions
system.switch_cpus_1.iew.iewDispSquashedInsts        21198                       # Number of squashed instructions skipped by dispatch
system.switch_cpus_1.iew.iewDispStoreInsts       184265                       # Number of dispatched store instructions
system.switch_cpus_1.iew.iewDispatchedInsts     32612200                       # Number of instructions dispatched to IQ
system.switch_cpus_1.iew.iewExecLoadInsts      3834848                       # Number of load instructions executed
system.switch_cpus_1.iew.iewExecSquashedInsts        18210                       # Number of squashed instructions skipped in execute
system.switch_cpus_1.iew.iewExecutedInsts     14262288                       # Number of executed instructions
system.switch_cpus_1.iew.iewIQFullEvents       375289                       # Number of times the IQ has become full, causing a stall
system.switch_cpus_1.iew.iewIdleCycles              0                       # Number of cycles IEW is idle
system.switch_cpus_1.iew.iewLSQFullEvents          855                       # Number of times the LSQ has become full, causing a stall
system.switch_cpus_1.iew.iewSquashCycles      2935251                       # Number of cycles IEW is squashing
system.switch_cpus_1.iew.iewUnblockCycles      1053322                       # Number of cycles IEW is unblocking
system.switch_cpus_1.iew.lsq.thread.0.blockedLoads            0                       # Number of blocked loads due to partial load-store forwarding
system.switch_cpus_1.iew.lsq.thread.0.cacheBlocked         8771                       # Number of times an access to memory failed due to the cache being blocked
system.switch_cpus_1.iew.lsq.thread.0.forwLoads        31705                       # Number of loads that had data forwarded from stores
system.switch_cpus_1.iew.lsq.thread.0.ignoredResponses          223                       # Number of memory responses ignored because the instruction is squashed
system.switch_cpus_1.iew.lsq.thread.0.invAddrLoads            0                       # Number of loads ignored due to an invalid address
system.switch_cpus_1.iew.lsq.thread.0.invAddrSwpfs            0                       # Number of software prefetches ignored due to an invalid address
system.switch_cpus_1.iew.lsq.thread.0.memOrderViolation          591                       # Number of memory ordering violations
system.switch_cpus_1.iew.lsq.thread.0.rescheduledLoads            0                       # Number of loads that were rescheduled
system.switch_cpus_1.iew.lsq.thread.0.squashedLoads      6245852                       # Number of loads squashed
system.switch_cpus_1.iew.lsq.thread.0.squashedStores        40169                       # Number of stores squashed
system.switch_cpus_1.iew.memOrderViolationEvents          591                       # Number of memory order violations
system.switch_cpus_1.iew.predictedNotTakenIncorrect         6786                       # Number of branches that were predicted not taken incorrectly
system.switch_cpus_1.iew.predictedTakenIncorrect        16005                       # Number of branches that were predicted taken incorrectly
system.switch_cpus_1.ipc                     0.033655                       # IPC: Instructions Per Cycle
system.switch_cpus_1.ipc_total               0.033655                       # IPC: Total IPC of All Threads
system.switch_cpus_1.iq.ISSUE:FU_type_0::No_OpClass            0      0.00%      0.00% # Type of FU issued
system.switch_cpus_1.iq.ISSUE:FU_type_0::IntAlu     10266409     71.89%     71.89% # Type of FU issued
system.switch_cpus_1.iq.ISSUE:FU_type_0::IntMult         1084      0.01%     71.90% # Type of FU issued
system.switch_cpus_1.iq.ISSUE:FU_type_0::IntDiv            0      0.00%     71.90% # Type of FU issued
system.switch_cpus_1.iq.ISSUE:FU_type_0::FloatAdd         3737      0.03%     71.92% # Type of FU issued
system.switch_cpus_1.iq.ISSUE:FU_type_0::FloatCmp            0      0.00%     71.92% # Type of FU issued
system.switch_cpus_1.iq.ISSUE:FU_type_0::FloatCvt         1100      0.01%     71.93% # Type of FU issued
system.switch_cpus_1.iq.ISSUE:FU_type_0::FloatMult          220      0.00%     71.93% # Type of FU issued
system.switch_cpus_1.iq.ISSUE:FU_type_0::FloatDiv            0      0.00%     71.93% # Type of FU issued
system.switch_cpus_1.iq.ISSUE:FU_type_0::FloatSqrt            0      0.00%     71.93% # Type of FU issued
system.switch_cpus_1.iq.ISSUE:FU_type_0::MemRead      3839164     26.88%     98.82% # Type of FU issued
system.switch_cpus_1.iq.ISSUE:FU_type_0::MemWrite       168784      1.18%    100.00% # Type of FU issued
system.switch_cpus_1.iq.ISSUE:FU_type_0::IprAccess            0      0.00%    100.00% # Type of FU issued
system.switch_cpus_1.iq.ISSUE:FU_type_0::InstPrefetch            0      0.00%    100.00% # Type of FU issued
system.switch_cpus_1.iq.ISSUE:FU_type_0::total     14280498                       # Type of FU issued
system.switch_cpus_1.iq.ISSUE:fu_busy_cnt         8768                       # FU busy when requested
system.switch_cpus_1.iq.ISSUE:fu_busy_rate     0.000614                       # FU busy rate (busy events/executed inst)
system.switch_cpus_1.iq.ISSUE:fu_full::No_OpClass            0      0.00%      0.00% # attempts to use FU when none available
system.switch_cpus_1.iq.ISSUE:fu_full::IntAlu           75      0.86%      0.86% # attempts to use FU when none available
system.switch_cpus_1.iq.ISSUE:fu_full::IntMult            0      0.00%      0.86% # attempts to use FU when none available
system.switch_cpus_1.iq.ISSUE:fu_full::IntDiv            0      0.00%      0.86% # attempts to use FU when none available
system.switch_cpus_1.iq.ISSUE:fu_full::FloatAdd            0      0.00%      0.86% # attempts to use FU when none available
system.switch_cpus_1.iq.ISSUE:fu_full::FloatCmp            0      0.00%      0.86% # attempts to use FU when none available
system.switch_cpus_1.iq.ISSUE:fu_full::FloatCvt            0      0.00%      0.86% # attempts to use FU when none available
system.switch_cpus_1.iq.ISSUE:fu_full::FloatMult            0      0.00%      0.86% # attempts to use FU when none available
system.switch_cpus_1.iq.ISSUE:fu_full::FloatDiv            0      0.00%      0.86% # attempts to use FU when none available
system.switch_cpus_1.iq.ISSUE:fu_full::FloatSqrt            0      0.00%      0.86% # attempts to use FU when none available
system.switch_cpus_1.iq.ISSUE:fu_full::MemRead         4838     55.18%     56.03% # attempts to use FU when none available
system.switch_cpus_1.iq.ISSUE:fu_full::MemWrite         3855     43.97%    100.00% # attempts to use FU when none available
system.switch_cpus_1.iq.ISSUE:fu_full::IprAccess            0      0.00%    100.00% # attempts to use FU when none available
system.switch_cpus_1.iq.ISSUE:fu_full::InstPrefetch            0      0.00%    100.00% # attempts to use FU when none available
system.switch_cpus_1.iq.ISSUE:issued_per_cycle::samples     54563879                       # Number of insts issued each cycle
system.switch_cpus_1.iq.ISSUE:issued_per_cycle::mean     0.261721                       # Number of insts issued each cycle
system.switch_cpus_1.iq.ISSUE:issued_per_cycle::stdev     0.644716                       # Number of insts issued each cycle
system.switch_cpus_1.iq.ISSUE:issued_per_cycle::underflows            0      0.00%      0.00% # Number of insts issued each cycle
system.switch_cpus_1.iq.ISSUE:issued_per_cycle::0     44274427     81.14%     81.14% # Number of insts issued each cycle
system.switch_cpus_1.iq.ISSUE:issued_per_cycle::1      7849610     14.39%     95.53% # Number of insts issued each cycle
system.switch_cpus_1.iq.ISSUE:issued_per_cycle::2      1267843      2.32%     97.85% # Number of insts issued each cycle
system.switch_cpus_1.iq.ISSUE:issued_per_cycle::3       914288      1.68%     99.53% # Number of insts issued each cycle
system.switch_cpus_1.iq.ISSUE:issued_per_cycle::4       156598      0.29%     99.81% # Number of insts issued each cycle
system.switch_cpus_1.iq.ISSUE:issued_per_cycle::5        85649      0.16%     99.97% # Number of insts issued each cycle
system.switch_cpus_1.iq.ISSUE:issued_per_cycle::6        10777      0.02%     99.99% # Number of insts issued each cycle
system.switch_cpus_1.iq.ISSUE:issued_per_cycle::7         4457      0.01%    100.00% # Number of insts issued each cycle
system.switch_cpus_1.iq.ISSUE:issued_per_cycle::8          230      0.00%    100.00% # Number of insts issued each cycle
system.switch_cpus_1.iq.ISSUE:issued_per_cycle::overflows            0      0.00%    100.00% # Number of insts issued each cycle
system.switch_cpus_1.iq.ISSUE:issued_per_cycle::min_value            0                       # Number of insts issued each cycle
system.switch_cpus_1.iq.ISSUE:issued_per_cycle::max_value            8                       # Number of insts issued each cycle
system.switch_cpus_1.iq.ISSUE:issued_per_cycle::total     54563879                       # Number of insts issued each cycle
system.switch_cpus_1.iq.ISSUE:rate           0.048061                       # Inst issue rate
system.switch_cpus_1.iq.iqInstsAdded         32250230                       # Number of instructions added to the IQ (excludes non-spec)
system.switch_cpus_1.iq.iqInstsIssued        14280498                       # Number of instructions issued
system.switch_cpus_1.iq.iqNonSpecInstsAdded            1                       # Number of non-speculative instructions added to the IQ
system.switch_cpus_1.iq.iqSquashedInstsExamined     22230792                       # Number of squashed instructions iterated over during squash; mainly for profiling
system.switch_cpus_1.iq.iqSquashedInstsIssued          489                       # Number of squashed instructions issued
system.switch_cpus_1.iq.iqSquashedOperandsExamined     31597623                       # Number of squashed operands that are examined and possibly removed from graph
system.switch_cpus_1.itb.data_accesses              0                       # DTB accesses
system.switch_cpus_1.itb.data_acv                   0                       # DTB access violations
system.switch_cpus_1.itb.data_hits                  0                       # DTB hits
system.switch_cpus_1.itb.data_misses                0                       # DTB misses
system.switch_cpus_1.itb.fetch_accesses       3236371                       # ITB accesses
system.switch_cpus_1.itb.fetch_acv                  0                       # ITB acv
system.switch_cpus_1.itb.fetch_hits           3236290                       # ITB hits
system.switch_cpus_1.itb.fetch_misses              81                       # ITB misses
system.switch_cpus_1.itb.read_accesses              0                       # DTB read accesses
system.switch_cpus_1.itb.read_acv                   0                       # DTB read access violations
system.switch_cpus_1.itb.read_hits                  0                       # DTB read hits
system.switch_cpus_1.itb.read_misses                0                       # DTB read misses
system.switch_cpus_1.itb.write_accesses             0                       # DTB write accesses
system.switch_cpus_1.itb.write_acv                  0                       # DTB write access violations
system.switch_cpus_1.itb.write_hits                 0                       # DTB write hits
system.switch_cpus_1.itb.write_misses               0                       # DTB write misses
system.switch_cpus_1.memDep0.conflictingLoads        68040                       # Number of conflicting loads.
system.switch_cpus_1.memDep0.conflictingStores         2717                       # Number of conflicting stores.
system.switch_cpus_1.memDep0.insertedLoads      8756785                       # Number of loads inserted to the mem dependence unit.
system.switch_cpus_1.memDep0.insertedStores       184265                       # Number of stores inserted to the mem dependence unit.
system.switch_cpus_1.numCycles              297134309                       # number of cpu cycles simulated
system.switch_cpus_1.rename.RENAME:BlockCycles     32784034                       # Number of cycles rename is blocking
system.switch_cpus_1.rename.RENAME:CommittedMaps      8255878                       # Number of HB maps that are committed
system.switch_cpus_1.rename.RENAME:IQFullEvents      4224094                       # Number of times rename has blocked due to IQ full
system.switch_cpus_1.rename.RENAME:IdleCycles      8280752                       # Number of cycles rename is idle
system.switch_cpus_1.rename.RENAME:LSQFullEvents        24017                       # Number of times rename has blocked due to LSQ full
system.switch_cpus_1.rename.RENAME:ROBFullEvents          703                       # Number of times rename has blocked due to ROB full
system.switch_cpus_1.rename.RENAME:RenameLookups     53309403                       # Number of register rename lookups that rename has made
system.switch_cpus_1.rename.RENAME:RenamedInsts     33084649                       # Number of instructions processed by rename
system.switch_cpus_1.rename.RENAME:RenamedOperands     27532389                       # Number of destination operands rename has renamed
system.switch_cpus_1.rename.RENAME:RunCycles      6584979                       # Number of cycles rename is running
system.switch_cpus_1.rename.RENAME:SquashCycles      2935251                       # Number of cycles rename is squashing
system.switch_cpus_1.rename.RENAME:UnblockCycles      3978851                       # Number of cycles rename is unblocking
system.switch_cpus_1.rename.RENAME:UndoneMaps     19276444                       # Number of HB maps that are undone due to squashing
system.switch_cpus_1.rename.RENAME:serializeStallCycles           11                       # count of cycles rename stalled for serializing inst
system.switch_cpus_1.rename.RENAME:serializingInsts            1                       # count of serializing insts renamed
system.switch_cpus_1.rename.RENAME:skidInsts      7717227                       # count of insts added to the skid buffer
system.switch_cpus_1.rename.RENAME:tempSerializingInsts            1                       # count of temporary serializing insts renamed
system.switch_cpus_1.timesIdled               1812228                       # Number of times that the entire CPU went into an idle state and unscheduled itself

---------- End Simulation Statistics   ----------
