
---------- Begin Simulation Statistics ----------
host_inst_rate                                 125906                       # Simulator instruction rate (inst/s)
host_mem_usage                                 333804                       # Number of bytes of host memory used
host_seconds                                   158.85                       # Real time elapsed on the host
host_tick_rate                              665044496                       # Simulator tick rate (ticks/s)
sim_freq                                 1000000000000                       # Frequency of simulated ticks
sim_insts                                    20000003                       # Number of instructions simulated
sim_seconds                                  0.105641                       # Number of seconds simulated
sim_ticks                                105641177000                       # Number of ticks simulated
system.cpu.dcache.ReadReq_accesses            5609484                       # number of ReadReq accesses(hits+misses)
system.cpu.dcache.ReadReq_avg_miss_latency 33234.551501                       # average ReadReq miss latency
system.cpu.dcache.ReadReq_avg_mshr_miss_latency 30015.795946                       # average ReadReq mshr miss latency
system.cpu.dcache.ReadReq_hits                2084271                       # number of ReadReq hits
system.cpu.dcache.ReadReq_miss_latency   117158873000                       # number of ReadReq miss cycles
system.cpu.dcache.ReadReq_miss_rate          0.628438                       # miss rate for ReadReq accesses
system.cpu.dcache.ReadReq_misses              3525213                       # number of ReadReq misses
system.cpu.dcache.ReadReq_mshr_hits              4183                       # number of ReadReq MSHR hits
system.cpu.dcache.ReadReq_mshr_miss_latency 105686518000                       # number of ReadReq MSHR miss cycles
system.cpu.dcache.ReadReq_mshr_miss_rate     0.627692                       # mshr miss rate for ReadReq accesses
system.cpu.dcache.ReadReq_mshr_misses         3521030                       # number of ReadReq MSHR misses
system.cpu.dcache.WriteReq_accesses            293301                       # number of WriteReq accesses(hits+misses)
system.cpu.dcache.WriteReq_avg_miss_latency 81968.871547                       # average WriteReq miss latency
system.cpu.dcache.WriteReq_avg_mshr_miss_latency 79928.527008                       # average WriteReq mshr miss latency
system.cpu.dcache.WriteReq_hits                285446                       # number of WriteReq hits
system.cpu.dcache.WriteReq_miss_latency     643865486                       # number of WriteReq miss cycles
system.cpu.dcache.WriteReq_miss_rate         0.026781                       # miss rate for WriteReq accesses
system.cpu.dcache.WriteReq_misses                7855                       # number of WriteReq misses
system.cpu.dcache.WriteReq_mshr_hits             2986                       # number of WriteReq MSHR hits
system.cpu.dcache.WriteReq_mshr_miss_latency    389171998                       # number of WriteReq MSHR miss cycles
system.cpu.dcache.WriteReq_mshr_miss_rate     0.016601                       # mshr miss rate for WriteReq accesses
system.cpu.dcache.WriteReq_mshr_misses           4869                       # number of WriteReq MSHR misses
system.cpu.dcache.avg_blocked_cycles::no_mshrs 16181.636364                       # average number of cycles each access was blocked
system.cpu.dcache.avg_blocked_cycles::no_targets 69134.853211                       # average number of cycles each access was blocked
system.cpu.dcache.avg_refs                   0.672588                       # Average number of references to valid blocks.
system.cpu.dcache.blocked::no_mshrs                11                       # number of cycles access was blocked
system.cpu.dcache.blocked::no_targets             545                       # number of cycles access was blocked
system.cpu.dcache.blocked_cycles::no_mshrs       177998                       # number of cycles access was blocked
system.cpu.dcache.blocked_cycles::no_targets     37678495                       # number of cycles access was blocked
system.cpu.dcache.cache_copies                      0                       # number of cache copies performed
system.cpu.dcache.demand_accesses             5902785                       # number of demand (read+write) accesses
system.cpu.dcache.demand_avg_miss_latency 33342.901548                       # average overall miss latency
system.cpu.dcache.demand_avg_mshr_miss_latency 30084.721655                       # average overall mshr miss latency
system.cpu.dcache.demand_hits                 2369717                       # number of demand (read+write) hits
system.cpu.dcache.demand_miss_latency    117802738486                       # number of demand (read+write) miss cycles
system.cpu.dcache.demand_miss_rate           0.598543                       # miss rate for demand accesses
system.cpu.dcache.demand_misses               3533068                       # number of demand (read+write) misses
system.cpu.dcache.demand_mshr_hits               7169                       # number of demand (read+write) MSHR hits
system.cpu.dcache.demand_mshr_miss_latency 106075689998                       # number of demand (read+write) MSHR miss cycles
system.cpu.dcache.demand_mshr_miss_rate      0.597328                       # mshr miss rate for demand accesses
system.cpu.dcache.demand_mshr_misses          3525899                       # number of demand (read+write) MSHR misses
system.cpu.dcache.fast_writes                       0                       # number of fast writes performed
system.cpu.dcache.mshr_cap_events                   0                       # number of times MSHR cap was activated
system.cpu.dcache.no_allocate_misses                0                       # Number of misses that were no-allocate
system.cpu.dcache.occ_%::0                   0.628364                       # Average percentage of cache occupancy
system.cpu.dcache.occ_blocks::0            643.444819                       # Average occupied blocks per context
system.cpu.dcache.overall_accesses            5902785                       # number of overall (read+write) accesses
system.cpu.dcache.overall_avg_miss_latency 33342.901548                       # average overall miss latency
system.cpu.dcache.overall_avg_mshr_miss_latency 30084.721655                       # average overall mshr miss latency
system.cpu.dcache.overall_avg_mshr_uncacheable_latency     no_value                       # average overall mshr uncacheable latency
system.cpu.dcache.overall_hits                2369717                       # number of overall hits
system.cpu.dcache.overall_miss_latency   117802738486                       # number of overall miss cycles
system.cpu.dcache.overall_miss_rate          0.598543                       # miss rate for overall accesses
system.cpu.dcache.overall_misses              3533068                       # number of overall misses
system.cpu.dcache.overall_mshr_hits              7169                       # number of overall MSHR hits
system.cpu.dcache.overall_mshr_miss_latency 106075689998                       # number of overall MSHR miss cycles
system.cpu.dcache.overall_mshr_miss_rate     0.597328                       # mshr miss rate for overall accesses
system.cpu.dcache.overall_mshr_misses         3525899                       # number of overall MSHR misses
system.cpu.dcache.overall_mshr_uncacheable_latency            0                       # number of overall MSHR uncacheable cycles
system.cpu.dcache.overall_mshr_uncacheable_misses            0                       # number of overall MSHR uncacheable misses
system.cpu.dcache.prefetch_accuracy          no_value                       # ratio of good prefetches to total prefetches
system.cpu.dcache.prefetch_hits                     0                       # number of prefetched blocks that were accessed
system.cpu.dcache.replacements                3524211                       # number of replacements
system.cpu.dcache.sampled_refs                3525061                       # Sample count of references to valid blocks.
system.cpu.dcache.soft_prefetch_mshr_full            0                       # number of mshr full events for SW prefetching instrutions
system.cpu.dcache.tagsinuse                643.444819                       # Cycle average of tags in use
system.cpu.dcache.total_refs                  2370915                       # Total number of references to valid blocks.
system.cpu.dcache.warmup_cycle                      0                       # Cycle when the warmup percentage was hit.
system.cpu.dcache.writebacks                     4506                       # number of writebacks
system.cpu.dtb.data_accesses                        0                       # DTB accesses
system.cpu.dtb.data_acv                             0                       # DTB access violations
system.cpu.dtb.data_hits                            0                       # DTB hits
system.cpu.dtb.data_misses                          0                       # DTB misses
system.cpu.dtb.fetch_accesses                       0                       # ITB accesses
system.cpu.dtb.fetch_acv                            0                       # ITB acv
system.cpu.dtb.fetch_hits                           0                       # ITB hits
system.cpu.dtb.fetch_misses                         0                       # ITB misses
system.cpu.dtb.read_accesses                        0                       # DTB read accesses
system.cpu.dtb.read_acv                             0                       # DTB read access violations
system.cpu.dtb.read_hits                            0                       # DTB read hits
system.cpu.dtb.read_misses                          0                       # DTB read misses
system.cpu.dtb.write_accesses                       0                       # DTB write accesses
system.cpu.dtb.write_acv                            0                       # DTB write access violations
system.cpu.dtb.write_hits                           0                       # DTB write hits
system.cpu.dtb.write_misses                         0                       # DTB write misses
system.cpu.icache.ReadReq_accesses           13517882                       # number of ReadReq accesses(hits+misses)
system.cpu.icache.ReadReq_avg_miss_latency 37994.942197                       # average ReadReq miss latency
system.cpu.icache.ReadReq_avg_mshr_miss_latency 33912.550843                       # average ReadReq mshr miss latency
system.cpu.icache.ReadReq_hits               13512346                       # number of ReadReq hits
system.cpu.icache.ReadReq_miss_latency      210340000                       # number of ReadReq miss cycles
system.cpu.icache.ReadReq_miss_rate          0.000410                       # miss rate for ReadReq accesses
system.cpu.icache.ReadReq_misses                 5536                       # number of ReadReq misses
system.cpu.icache.ReadReq_mshr_hits               372                       # number of ReadReq MSHR hits
system.cpu.icache.ReadReq_mshr_miss_latency    175090500                       # number of ReadReq MSHR miss cycles
system.cpu.icache.ReadReq_mshr_miss_rate     0.000382                       # mshr miss rate for ReadReq accesses
system.cpu.icache.ReadReq_mshr_misses            5163                       # number of ReadReq MSHR misses
system.cpu.icache.avg_blocked_cycles::no_mshrs     no_value                       # average number of cycles each access was blocked
system.cpu.icache.avg_blocked_cycles::no_targets        95000                       # average number of cycles each access was blocked
system.cpu.icache.avg_refs                2616.643300                       # Average number of references to valid blocks.
system.cpu.icache.blocked::no_mshrs                 0                       # number of cycles access was blocked
system.cpu.icache.blocked::no_targets               1                       # number of cycles access was blocked
system.cpu.icache.blocked_cycles::no_mshrs            0                       # number of cycles access was blocked
system.cpu.icache.blocked_cycles::no_targets        95000                       # number of cycles access was blocked
system.cpu.icache.cache_copies                      0                       # number of cache copies performed
system.cpu.icache.demand_accesses            13517882                       # number of demand (read+write) accesses
system.cpu.icache.demand_avg_miss_latency 37994.942197                       # average overall miss latency
system.cpu.icache.demand_avg_mshr_miss_latency 33912.550843                       # average overall mshr miss latency
system.cpu.icache.demand_hits                13512346                       # number of demand (read+write) hits
system.cpu.icache.demand_miss_latency       210340000                       # number of demand (read+write) miss cycles
system.cpu.icache.demand_miss_rate           0.000410                       # miss rate for demand accesses
system.cpu.icache.demand_misses                  5536                       # number of demand (read+write) misses
system.cpu.icache.demand_mshr_hits                372                       # number of demand (read+write) MSHR hits
system.cpu.icache.demand_mshr_miss_latency    175090500                       # number of demand (read+write) MSHR miss cycles
system.cpu.icache.demand_mshr_miss_rate      0.000382                       # mshr miss rate for demand accesses
system.cpu.icache.demand_mshr_misses             5163                       # number of demand (read+write) MSHR misses
system.cpu.icache.fast_writes                       0                       # number of fast writes performed
system.cpu.icache.mshr_cap_events                   0                       # number of times MSHR cap was activated
system.cpu.icache.no_allocate_misses                0                       # Number of misses that were no-allocate
system.cpu.icache.occ_%::0                   0.367941                       # Average percentage of cache occupancy
system.cpu.icache.occ_blocks::0            188.385545                       # Average occupied blocks per context
system.cpu.icache.overall_accesses           13517882                       # number of overall (read+write) accesses
system.cpu.icache.overall_avg_miss_latency 37994.942197                       # average overall miss latency
system.cpu.icache.overall_avg_mshr_miss_latency 33912.550843                       # average overall mshr miss latency
system.cpu.icache.overall_avg_mshr_uncacheable_latency     no_value                       # average overall mshr uncacheable latency
system.cpu.icache.overall_hits               13512346                       # number of overall hits
system.cpu.icache.overall_miss_latency      210340000                       # number of overall miss cycles
system.cpu.icache.overall_miss_rate          0.000410                       # miss rate for overall accesses
system.cpu.icache.overall_misses                 5536                       # number of overall misses
system.cpu.icache.overall_mshr_hits               372                       # number of overall MSHR hits
system.cpu.icache.overall_mshr_miss_latency    175090500                       # number of overall MSHR miss cycles
system.cpu.icache.overall_mshr_miss_rate     0.000382                       # mshr miss rate for overall accesses
system.cpu.icache.overall_mshr_misses            5163                       # number of overall MSHR misses
system.cpu.icache.overall_mshr_uncacheable_latency            0                       # number of overall MSHR uncacheable cycles
system.cpu.icache.overall_mshr_uncacheable_misses            0                       # number of overall MSHR uncacheable misses
system.cpu.icache.prefetch_accuracy          no_value                       # ratio of good prefetches to total prefetches
system.cpu.icache.prefetch_hits                     0                       # number of prefetched blocks that were accessed
system.cpu.icache.replacements                   4957                       # number of replacements
system.cpu.icache.sampled_refs                   5164                       # Sample count of references to valid blocks.
system.cpu.icache.soft_prefetch_mshr_full            0                       # number of mshr full events for SW prefetching instrutions
system.cpu.icache.tagsinuse                188.385545                       # Cycle average of tags in use
system.cpu.icache.total_refs                 13512346                       # Total number of references to valid blocks.
system.cpu.icache.warmup_cycle                      0                       # Cycle when the warmup percentage was hit.
system.cpu.icache.writebacks                        0                       # number of writebacks
system.cpu.idle_fraction                            0                       # Percentage of idle cycles
system.cpu.itb.data_accesses                        0                       # DTB accesses
system.cpu.itb.data_acv                             0                       # DTB access violations
system.cpu.itb.data_hits                            0                       # DTB hits
system.cpu.itb.data_misses                          0                       # DTB misses
system.cpu.itb.fetch_accesses                       2                       # ITB accesses
system.cpu.itb.fetch_acv                            0                       # ITB acv
system.cpu.itb.fetch_hits                           2                       # ITB hits
system.cpu.itb.fetch_misses                         0                       # ITB misses
system.cpu.itb.read_accesses                        0                       # DTB read accesses
system.cpu.itb.read_acv                             0                       # DTB read access violations
system.cpu.itb.read_hits                            0                       # DTB read hits
system.cpu.itb.read_misses                          0                       # DTB read misses
system.cpu.itb.write_accesses                       0                       # DTB write accesses
system.cpu.itb.write_acv                            0                       # DTB write access violations
system.cpu.itb.write_hits                           0                       # DTB write hits
system.cpu.itb.write_misses                         0                       # DTB write misses
system.cpu.not_idle_fraction                        1                       # Percentage of non-idle cycles
system.cpu.numCycles                                2                       # number of cpu cycles simulated
system.cpu.num_insts                                2                       # Number of instructions executed
system.cpu.num_refs                                 0                       # Number of memory references
system.cpu.workload.PROG:num_syscalls               3                       # Number of system calls
system.l2.HardPFReq_avg_mshr_miss_latency 85443.995801                       # average HardPFReq mshr miss latency
system.l2.HardPFReq_mshr_miss_latency    263317375836                       # number of HardPFReq MSHR miss cycles
system.l2.HardPFReq_mshr_miss_rate                inf                       # mshr miss rate for HardPFReq accesses
system.l2.HardPFReq_mshr_misses               3081754                       # number of HardPFReq MSHR misses
system.l2.ReadExReq_accesses                     4031                       # number of ReadExReq accesses(hits+misses)
system.l2.ReadExReq_avg_miss_latency     77353.570540                       # average ReadExReq miss latency
system.l2.ReadExReq_avg_mshr_miss_latency 61833.291864                       # average ReadExReq mshr miss latency
system.l2.ReadExReq_hits                           12                       # number of ReadExReq hits
system.l2.ReadExReq_miss_latency            310884000                       # number of ReadExReq miss cycles
system.l2.ReadExReq_miss_rate                0.997023                       # miss rate for ReadExReq accesses
system.l2.ReadExReq_misses                       4019                       # number of ReadExReq misses
system.l2.ReadExReq_mshr_miss_latency       248508000                       # number of ReadExReq MSHR miss cycles
system.l2.ReadExReq_mshr_miss_rate           0.997023                       # mshr miss rate for ReadExReq accesses
system.l2.ReadExReq_mshr_misses                  4019                       # number of ReadExReq MSHR misses
system.l2.ReadReq_accesses                    3526194                       # number of ReadReq accesses(hits+misses)
system.l2.ReadReq_avg_miss_latency       72616.998501                       # average ReadReq miss latency
system.l2.ReadReq_avg_mshr_miss_latency  82492.681216                       # average ReadReq mshr miss latency
system.l2.ReadReq_hits                        2633580                       # number of ReadReq hits
system.l2.ReadReq_miss_latency            64818949500                       # number of ReadReq miss cycles
system.l2.ReadReq_miss_rate                  0.253138                       # miss rate for ReadReq accesses
system.l2.ReadReq_misses                       892614                       # number of ReadReq misses
system.l2.ReadReq_mshr_hits                    329473                       # number of ReadReq MSHR hits
system.l2.ReadReq_mshr_miss_latency       46454928500                       # number of ReadReq MSHR miss cycles
system.l2.ReadReq_mshr_miss_rate             0.159702                       # mshr miss rate for ReadReq accesses
system.l2.ReadReq_mshr_misses                  563140                       # number of ReadReq MSHR misses
system.l2.UpgradeReq_accesses                     930                       # number of UpgradeReq accesses(hits+misses)
system.l2.UpgradeReq_avg_miss_latency    71729.569892                       # average UpgradeReq miss latency
system.l2.UpgradeReq_avg_mshr_miss_latency 56304.838710                       # average UpgradeReq mshr miss latency
system.l2.UpgradeReq_miss_latency            66708500                       # number of UpgradeReq miss cycles
system.l2.UpgradeReq_miss_rate                      1                       # miss rate for UpgradeReq accesses
system.l2.UpgradeReq_misses                       930                       # number of UpgradeReq misses
system.l2.UpgradeReq_mshr_miss_latency       52363500                       # number of UpgradeReq MSHR miss cycles
system.l2.UpgradeReq_mshr_miss_rate                 1                       # mshr miss rate for UpgradeReq accesses
system.l2.UpgradeReq_mshr_misses                  930                       # number of UpgradeReq MSHR misses
system.l2.Writeback_accesses                     4506                       # number of Writeback accesses(hits+misses)
system.l2.Writeback_hits                         4506                       # number of Writeback hits
system.l2.avg_blocked_cycles::no_mshrs       no_value                       # average number of cycles each access was blocked
system.l2.avg_blocked_cycles::no_targets     no_value                       # average number of cycles each access was blocked
system.l2.avg_refs                           0.722157                       # Average number of references to valid blocks.
system.l2.blocked::no_mshrs                         0                       # number of cycles access was blocked
system.l2.blocked::no_targets                       0                       # number of cycles access was blocked
system.l2.blocked_cycles::no_mshrs                  0                       # number of cycles access was blocked
system.l2.blocked_cycles::no_targets                0                       # number of cycles access was blocked
system.l2.cache_copies                              0                       # number of cache copies performed
system.l2.demand_accesses                     3530225                       # number of demand (read+write) accesses
system.l2.demand_avg_miss_latency        72638.229354                       # average overall miss latency
system.l2.demand_avg_mshr_miss_latency   82346.284728                       # average overall mshr miss latency
system.l2.demand_hits                         2633592                       # number of demand (read+write) hits
system.l2.demand_miss_latency             65129833500                       # number of demand (read+write) miss cycles
system.l2.demand_miss_rate                   0.253987                       # miss rate for demand accesses
system.l2.demand_misses                        896633                       # number of demand (read+write) misses
system.l2.demand_mshr_hits                     329473                       # number of demand (read+write) MSHR hits
system.l2.demand_mshr_miss_latency        46703436500                       # number of demand (read+write) MSHR miss cycles
system.l2.demand_mshr_miss_rate              0.160658                       # mshr miss rate for demand accesses
system.l2.demand_mshr_misses                   567159                       # number of demand (read+write) MSHR misses
system.l2.fast_writes                               0                       # number of fast writes performed
system.l2.mshr_cap_events                           0                       # number of times MSHR cap was activated
system.l2.no_allocate_misses                        0                       # Number of misses that were no-allocate
system.l2.occ_%::0                           0.278237                       # Average percentage of cache occupancy
system.l2.occ_%::1                           0.000493                       # Average percentage of cache occupancy
system.l2.occ_blocks::0                   4558.638403                       # Average occupied blocks per context
system.l2.occ_blocks::1                      8.071969                       # Average occupied blocks per context
system.l2.overall_accesses                    3530225                       # number of overall (read+write) accesses
system.l2.overall_avg_miss_latency       72638.229354                       # average overall miss latency
system.l2.overall_avg_mshr_miss_latency  84962.511393                       # average overall mshr miss latency
system.l2.overall_avg_mshr_uncacheable_latency     no_value                       # average overall mshr uncacheable latency
system.l2.overall_hits                        2633592                       # number of overall hits
system.l2.overall_miss_latency            65129833500                       # number of overall miss cycles
system.l2.overall_miss_rate                  0.253987                       # miss rate for overall accesses
system.l2.overall_misses                       896633                       # number of overall misses
system.l2.overall_mshr_hits                    329473                       # number of overall MSHR hits
system.l2.overall_mshr_miss_latency      310020812336                       # number of overall MSHR miss cycles
system.l2.overall_mshr_miss_rate             1.033621                       # mshr miss rate for overall accesses
system.l2.overall_mshr_misses                 3648913                       # number of overall MSHR misses
system.l2.overall_mshr_uncacheable_latency            0                       # number of overall MSHR uncacheable cycles
system.l2.overall_mshr_uncacheable_misses            0                       # number of overall MSHR uncacheable misses
system.l2.prefetch_accuracy                  0.853669                       # ratio of good prefetches to total prefetches
system.l2.prefetch_hits                       2630799                       # number of prefetched blocks that were accessed
system.l2.prefetcher.num_hwpf_already_in_prefetcher      3801658                       # number of hwpf that were already in the prefetch queue
system.l2.prefetcher.num_hwpf_evicted               0                       # number of hwpf removed due to no buffer left
system.l2.prefetcher.num_hwpf_identified      7139201                       # number of hwpf identified
system.l2.prefetcher.num_hwpf_issued          3145711                       # number of hwpf issued
system.l2.prefetcher.num_hwpf_removed_MSHR_hit       191823                       # number of hwpf removed because MSHR allocated
system.l2.prefetcher.num_hwpf_span_page             0                       # number of hwpf spanning a virtual page
system.l2.prefetcher.num_hwpf_squashed_from_miss            0                       # number of hwpf that got squashed due to a miss aborting calculation time
system.l2.replacements                        3643542                       # number of replacements
system.l2.sampled_refs                        3648286                       # Sample count of references to valid blocks.
system.l2.soft_prefetch_mshr_full                   0                       # number of mshr full events for SW prefetching instrutions
system.l2.tagsinuse                       4566.710372                       # Cycle average of tags in use
system.l2.total_refs                          2634635                       # Total number of references to valid blocks.
system.l2.warmup_cycle                              0                       # Cycle when the warmup percentage was hit.
system.l2.writebacks                             4475                       # number of writebacks
system.switch_cpus.dtb.data_accesses          2832022                       # DTB accesses
system.switch_cpus.dtb.data_acv                     0                       # DTB access violations
system.switch_cpus.dtb.data_hits              2558233                       # DTB hits
system.switch_cpus.dtb.data_misses             273789                       # DTB misses
system.switch_cpus.dtb.fetch_accesses               0                       # ITB accesses
system.switch_cpus.dtb.fetch_acv                    0                       # ITB acv
system.switch_cpus.dtb.fetch_hits                   0                       # ITB hits
system.switch_cpus.dtb.fetch_misses                 0                       # ITB misses
system.switch_cpus.dtb.read_accesses          2682476                       # DTB read accesses
system.switch_cpus.dtb.read_acv                     0                       # DTB read access violations
system.switch_cpus.dtb.read_hits              2409028                       # DTB read hits
system.switch_cpus.dtb.read_misses             273448                       # DTB read misses
system.switch_cpus.dtb.write_accesses          149546                       # DTB write accesses
system.switch_cpus.dtb.write_acv                    0                       # DTB write access violations
system.switch_cpus.dtb.write_hits              149205                       # DTB write hits
system.switch_cpus.dtb.write_misses               341                       # DTB write misses
system.switch_cpus.idle_fraction                    1                       # Percentage of idle cycles
system.switch_cpus.itb.data_accesses                0                       # DTB accesses
system.switch_cpus.itb.data_acv                     0                       # DTB access violations
system.switch_cpus.itb.data_hits                    0                       # DTB hits
system.switch_cpus.itb.data_misses                  0                       # DTB misses
system.switch_cpus.itb.fetch_accesses        10273803                       # ITB accesses
system.switch_cpus.itb.fetch_acv                    0                       # ITB acv
system.switch_cpus.itb.fetch_hits            10273790                       # ITB hits
system.switch_cpus.itb.fetch_misses                13                       # ITB misses
system.switch_cpus.itb.read_accesses                0                       # DTB read accesses
system.switch_cpus.itb.read_acv                     0                       # DTB read access violations
system.switch_cpus.itb.read_hits                    0                       # DTB read hits
system.switch_cpus.itb.read_misses                  0                       # DTB read misses
system.switch_cpus.itb.write_accesses               0                       # DTB write accesses
system.switch_cpus.itb.write_acv                    0                       # DTB write access violations
system.switch_cpus.itb.write_hits                   0                       # DTB write hits
system.switch_cpus.itb.write_misses                 0                       # DTB write misses
system.switch_cpus.not_idle_fraction                0                       # Percentage of non-idle cycles
system.switch_cpus.numCycles                 99841341                       # number of cpu cycles simulated
system.switch_cpus.num_insts                 10000001                       # Number of instructions executed
system.switch_cpus.num_refs                   2837031                       # Number of memory references
system.switch_cpus_1.BPredUnit.BTBCorrect            0                       # Number of correct BTB predictions (this stat may not work properly.
system.switch_cpus_1.BPredUnit.BTBHits        4695744                       # Number of BTB hits
system.switch_cpus_1.BPredUnit.BTBLookups      4881797                       # Number of BTB lookups
system.switch_cpus_1.BPredUnit.RASInCorrect           28                       # Number of incorrect RAS predictions.
system.switch_cpus_1.BPredUnit.condIncorrect        20751                       # Number of conditional branches incorrect
system.switch_cpus_1.BPredUnit.condPredicted      5241808                       # Number of conditional branches predicted
system.switch_cpus_1.BPredUnit.lookups        5387731                       # Number of BP lookups
system.switch_cpus_1.BPredUnit.usedRAS          53984                       # Number of times the RAS was used to get a target.
system.switch_cpus_1.commit.COM:branches      1639812                       # Number of branches committed
system.switch_cpus_1.commit.COM:bw_lim_events        63715                       # number cycles where commit BW limit reached
system.switch_cpus_1.commit.COM:bw_limited            0                       # number of insts not committed due to BW limits
system.switch_cpus_1.commit.COM:committed_per_cycle::samples     42518415                       # Number of insts commited each cycle
system.switch_cpus_1.commit.COM:committed_per_cycle::mean     0.242571                       # Number of insts commited each cycle
system.switch_cpus_1.commit.COM:committed_per_cycle::stdev     0.717522                       # Number of insts commited each cycle
system.switch_cpus_1.commit.COM:committed_per_cycle::underflows            0      0.00%      0.00% # Number of insts commited each cycle
system.switch_cpus_1.commit.COM:committed_per_cycle::0     35962269     84.58%     84.58% # Number of insts commited each cycle
system.switch_cpus_1.commit.COM:committed_per_cycle::1      4136293      9.73%     94.31% # Number of insts commited each cycle
system.switch_cpus_1.commit.COM:committed_per_cycle::2      1953740      4.60%     98.90% # Number of insts commited each cycle
system.switch_cpus_1.commit.COM:committed_per_cycle::3       137773      0.32%     99.23% # Number of insts commited each cycle
system.switch_cpus_1.commit.COM:committed_per_cycle::4        91397      0.21%     99.44% # Number of insts commited each cycle
system.switch_cpus_1.commit.COM:committed_per_cycle::5        89319      0.21%     99.65% # Number of insts commited each cycle
system.switch_cpus_1.commit.COM:committed_per_cycle::6        52610      0.12%     99.78% # Number of insts commited each cycle
system.switch_cpus_1.commit.COM:committed_per_cycle::7        31299      0.07%     99.85% # Number of insts commited each cycle
system.switch_cpus_1.commit.COM:committed_per_cycle::8        63715      0.15%    100.00% # Number of insts commited each cycle
system.switch_cpus_1.commit.COM:committed_per_cycle::overflows            0      0.00%    100.00% # Number of insts commited each cycle
system.switch_cpus_1.commit.COM:committed_per_cycle::min_value            0                       # Number of insts commited each cycle
system.switch_cpus_1.commit.COM:committed_per_cycle::max_value            8                       # Number of insts commited each cycle
system.switch_cpus_1.commit.COM:committed_per_cycle::total     42518415                       # Number of insts commited each cycle
system.switch_cpus_1.commit.COM:count        10313748                       # Number of instructions committed
system.switch_cpus_1.commit.COM:loads         2510912                       # Number of loads committed
system.switch_cpus_1.commit.COM:membars             0                       # Number of memory barriers committed
system.switch_cpus_1.commit.COM:refs          2655008                       # Number of memory references committed
system.switch_cpus_1.commit.COM:swp_count            0                       # Number of s/w prefetches committed
system.switch_cpus_1.commit.branchMispredicts        20413                       # The number of times a branch was mispredicted
system.switch_cpus_1.commit.commitCommittedInsts     10313748                       # The number of committed instructions
system.switch_cpus_1.commit.commitNonSpecStalls            1                       # The number of times commit has been forced to stall to communicate backwards
system.switch_cpus_1.commit.commitSquashedInsts     21885249                       # The number of squashed insts skipped by commit
system.switch_cpus_1.committedInsts          10000000                       # Number of Instructions Simulated
system.switch_cpus_1.committedInsts_total     10000000                       # Number of Instructions Simulated
system.switch_cpus_1.cpi                    11.144101                       # CPI: Cycles Per Instruction
system.switch_cpus_1.cpi_total              11.144101                       # CPI: Total CPI of All Threads
system.switch_cpus_1.decode.DECODE:BlockedCycles     27795661                       # Number of cycles decode is blocked
system.switch_cpus_1.decode.DECODE:BranchMispred          345                       # Number of times decode detected a branch misprediction
system.switch_cpus_1.decode.DECODE:BranchResolved        89598                       # Number of times decode resolved a branch
system.switch_cpus_1.decode.DECODE:DecodedInsts     33925147                       # Number of instructions handled by decode
system.switch_cpus_1.decode.DECODE:IdleCycles      7605999                       # Number of cycles decode is idle
system.switch_cpus_1.decode.DECODE:RunCycles      6539509                       # Number of cycles decode is running
system.switch_cpus_1.decode.DECODE:SquashCycles      2936033                       # Number of cycles decode is squashing
system.switch_cpus_1.decode.DECODE:SquashedInsts         1411                       # Number of squashed instructions handled by decode
system.switch_cpus_1.decode.DECODE:UnblockCycles       577245                       # Number of cycles decode is unblocking
system.switch_cpus_1.dtb.data_accesses        3997804                       # DTB accesses
system.switch_cpus_1.dtb.data_acv                   0                       # DTB access violations
system.switch_cpus_1.dtb.data_hits            3406695                       # DTB hits
system.switch_cpus_1.dtb.data_misses           591109                       # DTB misses
system.switch_cpus_1.dtb.fetch_accesses             0                       # ITB accesses
system.switch_cpus_1.dtb.fetch_acv                  0                       # ITB acv
system.switch_cpus_1.dtb.fetch_hits                 0                       # ITB hits
system.switch_cpus_1.dtb.fetch_misses               0                       # ITB misses
system.switch_cpus_1.dtb.read_accesses        3829667                       # DTB read accesses
system.switch_cpus_1.dtb.read_acv                   0                       # DTB read access violations
system.switch_cpus_1.dtb.read_hits            3239197                       # DTB read hits
system.switch_cpus_1.dtb.read_misses           590470                       # DTB read misses
system.switch_cpus_1.dtb.write_accesses        168137                       # DTB write accesses
system.switch_cpus_1.dtb.write_acv                  0                       # DTB write access violations
system.switch_cpus_1.dtb.write_hits            167498                       # DTB write hits
system.switch_cpus_1.dtb.write_misses             639                       # DTB write misses
system.switch_cpus_1.fetch.Branches           5387731                       # Number of branches that fetch encountered
system.switch_cpus_1.fetch.CacheLines         3244090                       # Number of cache lines fetched
system.switch_cpus_1.fetch.Cycles            10647244                       # Number of cycles fetch has run and was not squashing or blocked
system.switch_cpus_1.fetch.IcacheSquashes         4446                       # Number of outstanding Icache misses that were squashed
system.switch_cpus_1.fetch.Insts             35332089                       # Number of instructions fetch has processed
system.switch_cpus_1.fetch.SquashCycles        316415                       # Number of cycles fetch has spent squashing
system.switch_cpus_1.fetch.branchRate        0.048346                       # Number of branch fetches per cycle
system.switch_cpus_1.fetch.icacheStallCycles      3244090                       # Number of cycles fetch is stalled on an Icache miss
system.switch_cpus_1.fetch.predictedBranches      4749728                       # Number of branches that fetch has predicted taken
system.switch_cpus_1.fetch.rate              0.317047                       # Number of inst fetches per cycle
system.switch_cpus_1.fetch.rateDist::samples     45454448                       # Number of instructions fetched each cycle (Total)
system.switch_cpus_1.fetch.rateDist::mean     0.777308                       # Number of instructions fetched each cycle (Total)
system.switch_cpus_1.fetch.rateDist::stdev     1.989342                       # Number of instructions fetched each cycle (Total)
system.switch_cpus_1.fetch.rateDist::underflows            0      0.00%      0.00% # Number of instructions fetched each cycle (Total)
system.switch_cpus_1.fetch.rateDist::0       38051358     83.71%     83.71% # Number of instructions fetched each cycle (Total)
system.switch_cpus_1.fetch.rateDist::1         936030      2.06%     85.77% # Number of instructions fetched each cycle (Total)
system.switch_cpus_1.fetch.rateDist::2          74760      0.16%     85.94% # Number of instructions fetched each cycle (Total)
system.switch_cpus_1.fetch.rateDist::3          62988      0.14%     86.08% # Number of instructions fetched each cycle (Total)
system.switch_cpus_1.fetch.rateDist::4        4051749      8.91%     94.99% # Number of instructions fetched each cycle (Total)
system.switch_cpus_1.fetch.rateDist::5          56598      0.12%     95.11% # Number of instructions fetched each cycle (Total)
system.switch_cpus_1.fetch.rateDist::6          82196      0.18%     95.29% # Number of instructions fetched each cycle (Total)
system.switch_cpus_1.fetch.rateDist::7          35739      0.08%     95.37% # Number of instructions fetched each cycle (Total)
system.switch_cpus_1.fetch.rateDist::8        2103030      4.63%    100.00% # Number of instructions fetched each cycle (Total)
system.switch_cpus_1.fetch.rateDist::overflows            0      0.00%    100.00% # Number of instructions fetched each cycle (Total)
system.switch_cpus_1.fetch.rateDist::min_value            0                       # Number of instructions fetched each cycle (Total)
system.switch_cpus_1.fetch.rateDist::max_value            8                       # Number of instructions fetched each cycle (Total)
system.switch_cpus_1.fetch.rateDist::total     45454448                       # Number of instructions fetched each cycle (Total)
system.switch_cpus_1.idleCycles              65986564                       # Total number of cycles that the CPU has spent unscheduled due to idling
system.switch_cpus_1.iew.EXEC:branches        2328775                       # Number of branches executed
system.switch_cpus_1.iew.EXEC:nop              363776                       # number of nop insts executed
system.switch_cpus_1.iew.EXEC:rate           0.128097                       # Inst execution rate
system.switch_cpus_1.iew.EXEC:refs            4004200                       # number of memory reference insts executed
system.switch_cpus_1.iew.EXEC:stores           168137                       # Number of stores executed
system.switch_cpus_1.iew.EXEC:swp                   0                       # number of swp insts executed
system.switch_cpus_1.iew.WB:consumers        12077516                       # num instructions consuming a value
system.switch_cpus_1.iew.WB:count            13660889                       # cumulative count of insts written-back
system.switch_cpus_1.iew.WB:fanout           0.654799                       # average fanout of values written-back
system.switch_cpus_1.iew.WB:penalized               0                       # number of instrctions required to write to 'other' IQ
system.switch_cpus_1.iew.WB:penalized_rate            0                       # fraction of instructions written-back that wrote to 'other' IQ
system.switch_cpus_1.iew.WB:producers         7908343                       # num instructions producing a value
system.switch_cpus_1.iew.WB:rate             0.122584                       # insts written-back per cycle
system.switch_cpus_1.iew.WB:sent             14253126                       # cumulative count of insts sent to commit
system.switch_cpus_1.iew.branchMispredicts        23276                       # Number of branch mispredicts detected at execute
system.switch_cpus_1.iew.iewBlockCycles      17997902                       # Number of cycles IEW is blocking
system.switch_cpus_1.iew.iewDispLoadInsts      8756548                       # Number of dispatched load instructions
system.switch_cpus_1.iew.iewDispNonSpecInsts            1                       # Number of dispatched non-speculative instructions
system.switch_cpus_1.iew.iewDispSquashedInsts        20758                       # Number of squashed instructions skipped by dispatch
system.switch_cpus_1.iew.iewDispStoreInsts       184799                       # Number of dispatched store instructions
system.switch_cpus_1.iew.iewDispatchedInsts     32622950                       # Number of instructions dispatched to IQ
system.switch_cpus_1.iew.iewExecLoadInsts      3836063                       # Number of load instructions executed
system.switch_cpus_1.iew.iewExecSquashedInsts        19151                       # Number of squashed instructions skipped in execute
system.switch_cpus_1.iew.iewExecutedInsts     14275296                       # Number of executed instructions
system.switch_cpus_1.iew.iewIQFullEvents       379224                       # Number of times the IQ has become full, causing a stall
system.switch_cpus_1.iew.iewIdleCycles              0                       # Number of cycles IEW is idle
system.switch_cpus_1.iew.iewLSQFullEvents          823                       # Number of times the LSQ has become full, causing a stall
system.switch_cpus_1.iew.iewSquashCycles      2936033                       # Number of cycles IEW is squashing
system.switch_cpus_1.iew.iewUnblockCycles       956404                       # Number of cycles IEW is unblocking
system.switch_cpus_1.iew.lsq.thread.0.blockedLoads            0                       # Number of blocked loads due to partial load-store forwarding
system.switch_cpus_1.iew.lsq.thread.0.cacheBlocked         6366                       # Number of times an access to memory failed due to the cache being blocked
system.switch_cpus_1.iew.lsq.thread.0.forwLoads        32924                       # Number of loads that had data forwarded from stores
system.switch_cpus_1.iew.lsq.thread.0.ignoredResponses          261                       # Number of memory responses ignored because the instruction is squashed
system.switch_cpus_1.iew.lsq.thread.0.invAddrLoads            0                       # Number of loads ignored due to an invalid address
system.switch_cpus_1.iew.lsq.thread.0.invAddrSwpfs            0                       # Number of software prefetches ignored due to an invalid address
system.switch_cpus_1.iew.lsq.thread.0.memOrderViolation          574                       # Number of memory ordering violations
system.switch_cpus_1.iew.lsq.thread.0.rescheduledLoads            0                       # Number of loads that were rescheduled
system.switch_cpus_1.iew.lsq.thread.0.squashedLoads      6245615                       # Number of loads squashed
system.switch_cpus_1.iew.lsq.thread.0.squashedStores        40703                       # Number of stores squashed
system.switch_cpus_1.iew.memOrderViolationEvents          574                       # Number of memory order violations
system.switch_cpus_1.iew.predictedNotTakenIncorrect         7201                       # Number of branches that were predicted not taken incorrectly
system.switch_cpus_1.iew.predictedTakenIncorrect        16075                       # Number of branches that were predicted taken incorrectly
system.switch_cpus_1.ipc                     0.089734                       # IPC: Instructions Per Cycle
system.switch_cpus_1.ipc_total               0.089734                       # IPC: Total IPC of All Threads
system.switch_cpus_1.iq.ISSUE:FU_type_0::No_OpClass            0      0.00%      0.00% # Type of FU issued
system.switch_cpus_1.iq.ISSUE:FU_type_0::IntAlu     10277272     71.90%     71.90% # Type of FU issued
system.switch_cpus_1.iq.ISSUE:FU_type_0::IntMult         1084      0.01%     71.90% # Type of FU issued
system.switch_cpus_1.iq.ISSUE:FU_type_0::IntDiv            0      0.00%     71.90% # Type of FU issued
system.switch_cpus_1.iq.ISSUE:FU_type_0::FloatAdd         4255      0.03%     71.93% # Type of FU issued
system.switch_cpus_1.iq.ISSUE:FU_type_0::FloatCmp            0      0.00%     71.93% # Type of FU issued
system.switch_cpus_1.iq.ISSUE:FU_type_0::FloatCvt         1100      0.01%     71.94% # Type of FU issued
system.switch_cpus_1.iq.ISSUE:FU_type_0::FloatMult          220      0.00%     71.94% # Type of FU issued
system.switch_cpus_1.iq.ISSUE:FU_type_0::FloatDiv            0      0.00%     71.94% # Type of FU issued
system.switch_cpus_1.iq.ISSUE:FU_type_0::FloatSqrt            0      0.00%     71.94% # Type of FU issued
system.switch_cpus_1.iq.ISSUE:FU_type_0::MemRead      3840685     26.87%     98.81% # Type of FU issued
system.switch_cpus_1.iq.ISSUE:FU_type_0::MemWrite       169831      1.19%    100.00% # Type of FU issued
system.switch_cpus_1.iq.ISSUE:FU_type_0::IprAccess            0      0.00%    100.00% # Type of FU issued
system.switch_cpus_1.iq.ISSUE:FU_type_0::InstPrefetch            0      0.00%    100.00% # Type of FU issued
system.switch_cpus_1.iq.ISSUE:FU_type_0::total     14294447                       # Type of FU issued
system.switch_cpus_1.iq.ISSUE:fu_busy_cnt         8924                       # FU busy when requested
system.switch_cpus_1.iq.ISSUE:fu_busy_rate     0.000624                       # FU busy rate (busy events/executed inst)
system.switch_cpus_1.iq.ISSUE:fu_full::No_OpClass            0      0.00%      0.00% # attempts to use FU when none available
system.switch_cpus_1.iq.ISSUE:fu_full::IntAlu           67      0.75%      0.75% # attempts to use FU when none available
system.switch_cpus_1.iq.ISSUE:fu_full::IntMult            0      0.00%      0.75% # attempts to use FU when none available
system.switch_cpus_1.iq.ISSUE:fu_full::IntDiv            0      0.00%      0.75% # attempts to use FU when none available
system.switch_cpus_1.iq.ISSUE:fu_full::FloatAdd            0      0.00%      0.75% # attempts to use FU when none available
system.switch_cpus_1.iq.ISSUE:fu_full::FloatCmp            0      0.00%      0.75% # attempts to use FU when none available
system.switch_cpus_1.iq.ISSUE:fu_full::FloatCvt            0      0.00%      0.75% # attempts to use FU when none available
system.switch_cpus_1.iq.ISSUE:fu_full::FloatMult            0      0.00%      0.75% # attempts to use FU when none available
system.switch_cpus_1.iq.ISSUE:fu_full::FloatDiv            0      0.00%      0.75% # attempts to use FU when none available
system.switch_cpus_1.iq.ISSUE:fu_full::FloatSqrt            0      0.00%      0.75% # attempts to use FU when none available
system.switch_cpus_1.iq.ISSUE:fu_full::MemRead         5012     56.16%     56.91% # attempts to use FU when none available
system.switch_cpus_1.iq.ISSUE:fu_full::MemWrite         3845     43.09%    100.00% # attempts to use FU when none available
system.switch_cpus_1.iq.ISSUE:fu_full::IprAccess            0      0.00%    100.00% # attempts to use FU when none available
system.switch_cpus_1.iq.ISSUE:fu_full::InstPrefetch            0      0.00%    100.00% # attempts to use FU when none available
system.switch_cpus_1.iq.ISSUE:issued_per_cycle::samples     45454448                       # Number of insts issued each cycle
system.switch_cpus_1.iq.ISSUE:issued_per_cycle::mean     0.314479                       # Number of insts issued each cycle
system.switch_cpus_1.iq.ISSUE:issued_per_cycle::stdev     0.699941                       # Number of insts issued each cycle
system.switch_cpus_1.iq.ISSUE:issued_per_cycle::underflows            0      0.00%      0.00% # Number of insts issued each cycle
system.switch_cpus_1.iq.ISSUE:issued_per_cycle::0     35246020     77.54%     77.54% # Number of insts issued each cycle
system.switch_cpus_1.iq.ISSUE:issued_per_cycle::1      7750218     17.05%     94.59% # Number of insts issued each cycle
system.switch_cpus_1.iq.ISSUE:issued_per_cycle::2      1203791      2.65%     97.24% # Number of insts issued each cycle
system.switch_cpus_1.iq.ISSUE:issued_per_cycle::3      1003230      2.21%     99.45% # Number of insts issued each cycle
system.switch_cpus_1.iq.ISSUE:issued_per_cycle::4       149404      0.33%     99.78% # Number of insts issued each cycle
system.switch_cpus_1.iq.ISSUE:issued_per_cycle::5        86209      0.19%     99.97% # Number of insts issued each cycle
system.switch_cpus_1.iq.ISSUE:issued_per_cycle::6        10959      0.02%     99.99% # Number of insts issued each cycle
system.switch_cpus_1.iq.ISSUE:issued_per_cycle::7         4394      0.01%    100.00% # Number of insts issued each cycle
system.switch_cpus_1.iq.ISSUE:issued_per_cycle::8          223      0.00%    100.00% # Number of insts issued each cycle
system.switch_cpus_1.iq.ISSUE:issued_per_cycle::overflows            0      0.00%    100.00% # Number of insts issued each cycle
system.switch_cpus_1.iq.ISSUE:issued_per_cycle::min_value            0                       # Number of insts issued each cycle
system.switch_cpus_1.iq.ISSUE:issued_per_cycle::max_value            8                       # Number of insts issued each cycle
system.switch_cpus_1.iq.ISSUE:issued_per_cycle::total     45454448                       # Number of insts issued each cycle
system.switch_cpus_1.iq.ISSUE:rate           0.128269                       # Inst issue rate
system.switch_cpus_1.iq.iqInstsAdded         32259173                       # Number of instructions added to the IQ (excludes non-spec)
system.switch_cpus_1.iq.iqInstsIssued        14294447                       # Number of instructions issued
system.switch_cpus_1.iq.iqNonSpecInstsAdded            1                       # Number of non-speculative instructions added to the IQ
system.switch_cpus_1.iq.iqSquashedInstsExamined     22239246                       # Number of squashed instructions iterated over during squash; mainly for profiling
system.switch_cpus_1.iq.iqSquashedInstsIssued          532                       # Number of squashed instructions issued
system.switch_cpus_1.iq.iqSquashedOperandsExamined     31587624                       # Number of squashed operands that are examined and possibly removed from graph
system.switch_cpus_1.itb.data_accesses              0                       # DTB accesses
system.switch_cpus_1.itb.data_acv                   0                       # DTB access violations
system.switch_cpus_1.itb.data_hits                  0                       # DTB hits
system.switch_cpus_1.itb.data_misses                0                       # DTB misses
system.switch_cpus_1.itb.fetch_accesses       3244155                       # ITB accesses
system.switch_cpus_1.itb.fetch_acv                  0                       # ITB acv
system.switch_cpus_1.itb.fetch_hits           3244090                       # ITB hits
system.switch_cpus_1.itb.fetch_misses              65                       # ITB misses
system.switch_cpus_1.itb.read_accesses              0                       # DTB read accesses
system.switch_cpus_1.itb.read_acv                   0                       # DTB read access violations
system.switch_cpus_1.itb.read_hits                  0                       # DTB read hits
system.switch_cpus_1.itb.read_misses                0                       # DTB read misses
system.switch_cpus_1.itb.write_accesses             0                       # DTB write accesses
system.switch_cpus_1.itb.write_acv                  0                       # DTB write access violations
system.switch_cpus_1.itb.write_hits                 0                       # DTB write hits
system.switch_cpus_1.itb.write_misses               0                       # DTB write misses
system.switch_cpus_1.memDep0.conflictingLoads        66865                       # Number of conflicting loads.
system.switch_cpus_1.memDep0.conflictingStores         2524                       # Number of conflicting stores.
system.switch_cpus_1.memDep0.insertedLoads      8756548                       # Number of loads inserted to the mem dependence unit.
system.switch_cpus_1.memDep0.insertedStores       184799                       # Number of stores inserted to the mem dependence unit.
system.switch_cpus_1.numCycles              111441012                       # number of cpu cycles simulated
system.switch_cpus_1.rename.RENAME:BlockCycles     23726812                       # Number of cycles rename is blocking
system.switch_cpus_1.rename.RENAME:CommittedMaps      8255878                       # Number of HB maps that are committed
system.switch_cpus_1.rename.RENAME:IQFullEvents      4255865                       # Number of times rename has blocked due to IQ full
system.switch_cpus_1.rename.RENAME:IdleCycles      8195791                       # Number of cycles rename is idle
system.switch_cpus_1.rename.RENAME:LSQFullEvents        27002                       # Number of times rename has blocked due to LSQ full
system.switch_cpus_1.rename.RENAME:ROBFullEvents          912                       # Number of times rename has blocked due to ROB full
system.switch_cpus_1.rename.RENAME:RenameLookups     53229457                       # Number of register rename lookups that rename has made
system.switch_cpus_1.rename.RENAME:RenamedInsts     33046509                       # Number of instructions processed by rename
system.switch_cpus_1.rename.RENAME:RenamedOperands     27495711                       # Number of destination operands rename has renamed
system.switch_cpus_1.rename.RENAME:RunCycles      6542268                       # Number of cycles rename is running
system.switch_cpus_1.rename.RENAME:SquashCycles      2936033                       # Number of cycles rename is squashing
system.switch_cpus_1.rename.RENAME:UnblockCycles      4053532                       # Number of cycles rename is unblocking
system.switch_cpus_1.rename.RENAME:UndoneMaps     19239767                       # Number of HB maps that are undone due to squashing
system.switch_cpus_1.rename.RENAME:serializeStallCycles           11                       # count of cycles rename stalled for serializing inst
system.switch_cpus_1.rename.RENAME:serializingInsts            1                       # count of serializing insts renamed
system.switch_cpus_1.rename.RENAME:skidInsts      7524954                       # count of insts added to the skid buffer
system.switch_cpus_1.rename.RENAME:tempSerializingInsts            1                       # count of temporary serializing insts renamed
system.switch_cpus_1.timesIdled               1152935                       # Number of times that the entire CPU went into an idle state and unscheduled itself

---------- End Simulation Statistics   ----------
