
---------- Begin Simulation Statistics ----------
host_inst_rate                                 125455                       # Simulator instruction rate (inst/s)
host_mem_usage                                 333804                       # Number of bytes of host memory used
host_seconds                                   159.42                       # Real time elapsed on the host
host_tick_rate                              667685654                       # Simulator tick rate (ticks/s)
sim_freq                                 1000000000000                       # Frequency of simulated ticks
sim_insts                                    20000003                       # Number of instructions simulated
sim_seconds                                  0.106442                       # Number of seconds simulated
sim_ticks                                106442272000                       # Number of ticks simulated
system.cpu.dcache.ReadReq_accesses            5609050                       # number of ReadReq accesses(hits+misses)
system.cpu.dcache.ReadReq_avg_miss_latency 34058.977052                       # average ReadReq miss latency
system.cpu.dcache.ReadReq_avg_mshr_miss_latency 30851.945001                       # average ReadReq mshr miss latency
system.cpu.dcache.ReadReq_hits                2083789                       # number of ReadReq hits
system.cpu.dcache.ReadReq_miss_latency   120066783500                       # number of ReadReq miss cycles
system.cpu.dcache.ReadReq_miss_rate          0.628495                       # miss rate for ReadReq accesses
system.cpu.dcache.ReadReq_misses              3525261                       # number of ReadReq misses
system.cpu.dcache.ReadReq_mshr_hits              4235                       # number of ReadReq MSHR hits
system.cpu.dcache.ReadReq_mshr_miss_latency 108630500500                       # number of ReadReq MSHR miss cycles
system.cpu.dcache.ReadReq_mshr_miss_rate     0.627740                       # mshr miss rate for ReadReq accesses
system.cpu.dcache.ReadReq_mshr_misses         3521026                       # number of ReadReq MSHR misses
system.cpu.dcache.WriteReq_accesses            293301                       # number of WriteReq accesses(hits+misses)
system.cpu.dcache.WriteReq_avg_miss_latency 80254.549459                       # average WriteReq miss latency
system.cpu.dcache.WriteReq_avg_mshr_miss_latency 78511.498563                       # average WriteReq mshr miss latency
system.cpu.dcache.WriteReq_hits                285446                       # number of WriteReq hits
system.cpu.dcache.WriteReq_miss_latency     630399486                       # number of WriteReq miss cycles
system.cpu.dcache.WriteReq_miss_rate         0.026781                       # miss rate for WriteReq accesses
system.cpu.dcache.WriteReq_misses                7855                       # number of WriteReq misses
system.cpu.dcache.WriteReq_mshr_hits             2985                       # number of WriteReq MSHR hits
system.cpu.dcache.WriteReq_mshr_miss_latency    382350998                       # number of WriteReq MSHR miss cycles
system.cpu.dcache.WriteReq_mshr_miss_rate     0.016604                       # mshr miss rate for WriteReq accesses
system.cpu.dcache.WriteReq_mshr_misses           4870                       # number of WriteReq MSHR misses
system.cpu.dcache.avg_blocked_cycles::no_mshrs 14863.454545                       # average number of cycles each access was blocked
system.cpu.dcache.avg_blocked_cycles::no_targets 67810.557377                       # average number of cycles each access was blocked
system.cpu.dcache.avg_refs                   0.672449                       # Average number of references to valid blocks.
system.cpu.dcache.blocked::no_mshrs                11                       # number of cycles access was blocked
system.cpu.dcache.blocked::no_targets             549                       # number of cycles access was blocked
system.cpu.dcache.blocked_cycles::no_mshrs       163498                       # number of cycles access was blocked
system.cpu.dcache.blocked_cycles::no_targets     37227996                       # number of cycles access was blocked
system.cpu.dcache.cache_copies                      0                       # number of cache copies performed
system.cpu.dcache.demand_accesses             5902351                       # number of demand (read+write) accesses
system.cpu.dcache.demand_avg_miss_latency 34161.681356                       # average overall miss latency
system.cpu.dcache.demand_avg_mshr_miss_latency 30917.772815                       # average overall mshr miss latency
system.cpu.dcache.demand_hits                 2369235                       # number of demand (read+write) hits
system.cpu.dcache.demand_miss_latency    120697182986                       # number of demand (read+write) miss cycles
system.cpu.dcache.demand_miss_rate           0.598595                       # miss rate for demand accesses
system.cpu.dcache.demand_misses               3533116                       # number of demand (read+write) misses
system.cpu.dcache.demand_mshr_hits               7220                       # number of demand (read+write) MSHR hits
system.cpu.dcache.demand_mshr_miss_latency 109012851498                       # number of demand (read+write) MSHR miss cycles
system.cpu.dcache.demand_mshr_miss_rate      0.597371                       # mshr miss rate for demand accesses
system.cpu.dcache.demand_mshr_misses          3525896                       # number of demand (read+write) MSHR misses
system.cpu.dcache.fast_writes                       0                       # number of fast writes performed
system.cpu.dcache.mshr_cap_events                   0                       # number of times MSHR cap was activated
system.cpu.dcache.no_allocate_misses                0                       # Number of misses that were no-allocate
system.cpu.dcache.occ_%::0                   0.629228                       # Average percentage of cache occupancy
system.cpu.dcache.occ_blocks::0            644.329880                       # Average occupied blocks per context
system.cpu.dcache.overall_accesses            5902351                       # number of overall (read+write) accesses
system.cpu.dcache.overall_avg_miss_latency 34161.681356                       # average overall miss latency
system.cpu.dcache.overall_avg_mshr_miss_latency 30917.772815                       # average overall mshr miss latency
system.cpu.dcache.overall_avg_mshr_uncacheable_latency     no_value                       # average overall mshr uncacheable latency
system.cpu.dcache.overall_hits                2369235                       # number of overall hits
system.cpu.dcache.overall_miss_latency   120697182986                       # number of overall miss cycles
system.cpu.dcache.overall_miss_rate          0.598595                       # miss rate for overall accesses
system.cpu.dcache.overall_misses              3533116                       # number of overall misses
system.cpu.dcache.overall_mshr_hits              7220                       # number of overall MSHR hits
system.cpu.dcache.overall_mshr_miss_latency 109012851498                       # number of overall MSHR miss cycles
system.cpu.dcache.overall_mshr_miss_rate     0.597371                       # mshr miss rate for overall accesses
system.cpu.dcache.overall_mshr_misses         3525896                       # number of overall MSHR misses
system.cpu.dcache.overall_mshr_uncacheable_latency            0                       # number of overall MSHR uncacheable cycles
system.cpu.dcache.overall_mshr_uncacheable_misses            0                       # number of overall MSHR uncacheable misses
system.cpu.dcache.prefetch_accuracy          no_value                       # ratio of good prefetches to total prefetches
system.cpu.dcache.prefetch_hits                     0                       # number of prefetched blocks that were accessed
system.cpu.dcache.replacements                3524211                       # number of replacements
system.cpu.dcache.sampled_refs                3525061                       # Sample count of references to valid blocks.
system.cpu.dcache.soft_prefetch_mshr_full            0                       # number of mshr full events for SW prefetching instrutions
system.cpu.dcache.tagsinuse                644.329880                       # Cycle average of tags in use
system.cpu.dcache.total_refs                  2370424                       # Total number of references to valid blocks.
system.cpu.dcache.warmup_cycle                      0                       # Cycle when the warmup percentage was hit.
system.cpu.dcache.writebacks                     4506                       # number of writebacks
system.cpu.dtb.data_accesses                        0                       # DTB accesses
system.cpu.dtb.data_acv                             0                       # DTB access violations
system.cpu.dtb.data_hits                            0                       # DTB hits
system.cpu.dtb.data_misses                          0                       # DTB misses
system.cpu.dtb.fetch_accesses                       0                       # ITB accesses
system.cpu.dtb.fetch_acv                            0                       # ITB acv
system.cpu.dtb.fetch_hits                           0                       # ITB hits
system.cpu.dtb.fetch_misses                         0                       # ITB misses
system.cpu.dtb.read_accesses                        0                       # DTB read accesses
system.cpu.dtb.read_acv                             0                       # DTB read access violations
system.cpu.dtb.read_hits                            0                       # DTB read hits
system.cpu.dtb.read_misses                          0                       # DTB read misses
system.cpu.dtb.write_accesses                       0                       # DTB write accesses
system.cpu.dtb.write_acv                            0                       # DTB write access violations
system.cpu.dtb.write_hits                           0                       # DTB write hits
system.cpu.dtb.write_misses                         0                       # DTB write misses
system.cpu.icache.ReadReq_accesses           13510901                       # number of ReadReq accesses(hits+misses)
system.cpu.icache.ReadReq_avg_miss_latency 37421.714902                       # average ReadReq miss latency
system.cpu.icache.ReadReq_avg_mshr_miss_latency 33429.415182                       # average ReadReq mshr miss latency
system.cpu.icache.ReadReq_hits               13505338                       # number of ReadReq hits
system.cpu.icache.ReadReq_miss_latency      208177000                       # number of ReadReq miss cycles
system.cpu.icache.ReadReq_miss_rate          0.000412                       # miss rate for ReadReq accesses
system.cpu.icache.ReadReq_misses                 5563                       # number of ReadReq misses
system.cpu.icache.ReadReq_mshr_hits               398                       # number of ReadReq MSHR hits
system.cpu.icache.ReadReq_mshr_miss_latency    172629500                       # number of ReadReq MSHR miss cycles
system.cpu.icache.ReadReq_mshr_miss_rate     0.000382                       # mshr miss rate for ReadReq accesses
system.cpu.icache.ReadReq_mshr_misses            5164                       # number of ReadReq MSHR misses
system.cpu.icache.avg_blocked_cycles::no_mshrs     no_value                       # average number of cycles each access was blocked
system.cpu.icache.avg_blocked_cycles::no_targets       139500                       # average number of cycles each access was blocked
system.cpu.icache.avg_refs                2614.779864                       # Average number of references to valid blocks.
system.cpu.icache.blocked::no_mshrs                 0                       # number of cycles access was blocked
system.cpu.icache.blocked::no_targets               1                       # number of cycles access was blocked
system.cpu.icache.blocked_cycles::no_mshrs            0                       # number of cycles access was blocked
system.cpu.icache.blocked_cycles::no_targets       139500                       # number of cycles access was blocked
system.cpu.icache.cache_copies                      0                       # number of cache copies performed
system.cpu.icache.demand_accesses            13510901                       # number of demand (read+write) accesses
system.cpu.icache.demand_avg_miss_latency 37421.714902                       # average overall miss latency
system.cpu.icache.demand_avg_mshr_miss_latency 33429.415182                       # average overall mshr miss latency
system.cpu.icache.demand_hits                13505338                       # number of demand (read+write) hits
system.cpu.icache.demand_miss_latency       208177000                       # number of demand (read+write) miss cycles
system.cpu.icache.demand_miss_rate           0.000412                       # miss rate for demand accesses
system.cpu.icache.demand_misses                  5563                       # number of demand (read+write) misses
system.cpu.icache.demand_mshr_hits                398                       # number of demand (read+write) MSHR hits
system.cpu.icache.demand_mshr_miss_latency    172629500                       # number of demand (read+write) MSHR miss cycles
system.cpu.icache.demand_mshr_miss_rate      0.000382                       # mshr miss rate for demand accesses
system.cpu.icache.demand_mshr_misses             5164                       # number of demand (read+write) MSHR misses
system.cpu.icache.fast_writes                       0                       # number of fast writes performed
system.cpu.icache.mshr_cap_events                   0                       # number of times MSHR cap was activated
system.cpu.icache.no_allocate_misses                0                       # Number of misses that were no-allocate
system.cpu.icache.occ_%::0                   0.369196                       # Average percentage of cache occupancy
system.cpu.icache.occ_blocks::0            189.028305                       # Average occupied blocks per context
system.cpu.icache.overall_accesses           13510901                       # number of overall (read+write) accesses
system.cpu.icache.overall_avg_miss_latency 37421.714902                       # average overall miss latency
system.cpu.icache.overall_avg_mshr_miss_latency 33429.415182                       # average overall mshr miss latency
system.cpu.icache.overall_avg_mshr_uncacheable_latency     no_value                       # average overall mshr uncacheable latency
system.cpu.icache.overall_hits               13505338                       # number of overall hits
system.cpu.icache.overall_miss_latency      208177000                       # number of overall miss cycles
system.cpu.icache.overall_miss_rate          0.000412                       # miss rate for overall accesses
system.cpu.icache.overall_misses                 5563                       # number of overall misses
system.cpu.icache.overall_mshr_hits               398                       # number of overall MSHR hits
system.cpu.icache.overall_mshr_miss_latency    172629500                       # number of overall MSHR miss cycles
system.cpu.icache.overall_mshr_miss_rate     0.000382                       # mshr miss rate for overall accesses
system.cpu.icache.overall_mshr_misses            5164                       # number of overall MSHR misses
system.cpu.icache.overall_mshr_uncacheable_latency            0                       # number of overall MSHR uncacheable cycles
system.cpu.icache.overall_mshr_uncacheable_misses            0                       # number of overall MSHR uncacheable misses
system.cpu.icache.prefetch_accuracy          no_value                       # ratio of good prefetches to total prefetches
system.cpu.icache.prefetch_hits                     0                       # number of prefetched blocks that were accessed
system.cpu.icache.replacements                   4957                       # number of replacements
system.cpu.icache.sampled_refs                   5165                       # Sample count of references to valid blocks.
system.cpu.icache.soft_prefetch_mshr_full            0                       # number of mshr full events for SW prefetching instrutions
system.cpu.icache.tagsinuse                189.028305                       # Cycle average of tags in use
system.cpu.icache.total_refs                 13505338                       # Total number of references to valid blocks.
system.cpu.icache.warmup_cycle                      0                       # Cycle when the warmup percentage was hit.
system.cpu.icache.writebacks                        0                       # number of writebacks
system.cpu.idle_fraction                            0                       # Percentage of idle cycles
system.cpu.itb.data_accesses                        0                       # DTB accesses
system.cpu.itb.data_acv                             0                       # DTB access violations
system.cpu.itb.data_hits                            0                       # DTB hits
system.cpu.itb.data_misses                          0                       # DTB misses
system.cpu.itb.fetch_accesses                       2                       # ITB accesses
system.cpu.itb.fetch_acv                            0                       # ITB acv
system.cpu.itb.fetch_hits                           2                       # ITB hits
system.cpu.itb.fetch_misses                         0                       # ITB misses
system.cpu.itb.read_accesses                        0                       # DTB read accesses
system.cpu.itb.read_acv                             0                       # DTB read access violations
system.cpu.itb.read_hits                            0                       # DTB read hits
system.cpu.itb.read_misses                          0                       # DTB read misses
system.cpu.itb.write_accesses                       0                       # DTB write accesses
system.cpu.itb.write_acv                            0                       # DTB write access violations
system.cpu.itb.write_hits                           0                       # DTB write hits
system.cpu.itb.write_misses                         0                       # DTB write misses
system.cpu.not_idle_fraction                        1                       # Percentage of non-idle cycles
system.cpu.numCycles                                2                       # number of cpu cycles simulated
system.cpu.num_insts                                2                       # Number of instructions executed
system.cpu.num_refs                                 0                       # Number of memory references
system.cpu.workload.PROG:num_syscalls               3                       # Number of system calls
system.l2.HardPFReq_avg_mshr_miss_latency 88013.242585                       # average HardPFReq mshr miss latency
system.l2.HardPFReq_mshr_miss_latency    268609023256                       # number of HardPFReq MSHR miss cycles
system.l2.HardPFReq_mshr_miss_rate                inf                       # mshr miss rate for HardPFReq accesses
system.l2.HardPFReq_mshr_misses               3051916                       # number of HardPFReq MSHR misses
system.l2.ReadExReq_accesses                     4035                       # number of ReadExReq accesses(hits+misses)
system.l2.ReadExReq_avg_miss_latency     76452.245100                       # average ReadExReq miss latency
system.l2.ReadExReq_avg_mshr_miss_latency 60915.777723                       # average ReadExReq mshr miss latency
system.l2.ReadExReq_hits                            4                       # number of ReadExReq hits
system.l2.ReadExReq_miss_latency            308179000                       # number of ReadExReq miss cycles
system.l2.ReadExReq_miss_rate                0.999009                       # miss rate for ReadExReq accesses
system.l2.ReadExReq_misses                       4031                       # number of ReadExReq misses
system.l2.ReadExReq_mshr_miss_latency       245551500                       # number of ReadExReq MSHR miss cycles
system.l2.ReadExReq_mshr_miss_rate           0.999009                       # mshr miss rate for ReadExReq accesses
system.l2.ReadExReq_mshr_misses                  4031                       # number of ReadExReq MSHR misses
system.l2.ReadReq_accesses                    3526191                       # number of ReadReq accesses(hits+misses)
system.l2.ReadReq_avg_miss_latency       73444.546896                       # average ReadReq miss latency
system.l2.ReadReq_avg_mshr_miss_latency  83406.346744                       # average ReadReq mshr miss latency
system.l2.ReadReq_hits                        2599462                       # number of ReadReq hits
system.l2.ReadReq_miss_latency            68063191500                       # number of ReadReq miss cycles
system.l2.ReadReq_miss_rate                  0.262813                       # miss rate for ReadReq accesses
system.l2.ReadReq_misses                       926729                       # number of ReadReq misses
system.l2.ReadReq_mshr_hits                    338190                       # number of ReadReq MSHR hits
system.l2.ReadReq_mshr_miss_latency       49087804500                       # number of ReadReq MSHR miss cycles
system.l2.ReadReq_mshr_miss_rate             0.166905                       # mshr miss rate for ReadReq accesses
system.l2.ReadReq_mshr_misses                  588538                       # number of ReadReq MSHR misses
system.l2.UpgradeReq_accesses                     926                       # number of UpgradeReq accesses(hits+misses)
system.l2.UpgradeReq_avg_miss_latency    67086.393089                       # average UpgradeReq miss latency
system.l2.UpgradeReq_avg_mshr_miss_latency 51578.293737                       # average UpgradeReq mshr miss latency
system.l2.UpgradeReq_miss_latency            62122000                       # number of UpgradeReq miss cycles
system.l2.UpgradeReq_miss_rate                      1                       # miss rate for UpgradeReq accesses
system.l2.UpgradeReq_misses                       926                       # number of UpgradeReq misses
system.l2.UpgradeReq_mshr_miss_latency       47761500                       # number of UpgradeReq MSHR miss cycles
system.l2.UpgradeReq_mshr_miss_rate                 1                       # mshr miss rate for UpgradeReq accesses
system.l2.UpgradeReq_mshr_misses                  926                       # number of UpgradeReq MSHR misses
system.l2.Writeback_accesses                     4506                       # number of Writeback accesses(hits+misses)
system.l2.Writeback_hits                         4506                       # number of Writeback hits
system.l2.avg_blocked_cycles::no_mshrs       no_value                       # average number of cycles each access was blocked
system.l2.avg_blocked_cycles::no_targets     no_value                       # average number of cycles each access was blocked
system.l2.avg_refs                           0.713635                       # Average number of references to valid blocks.
system.l2.blocked::no_mshrs                         0                       # number of cycles access was blocked
system.l2.blocked::no_targets                       0                       # number of cycles access was blocked
system.l2.blocked_cycles::no_mshrs                  0                       # number of cycles access was blocked
system.l2.blocked_cycles::no_targets                0                       # number of cycles access was blocked
system.l2.cache_copies                              0                       # number of cache copies performed
system.l2.demand_accesses                     3530226                       # number of demand (read+write) accesses
system.l2.demand_avg_miss_latency        73457.572844                       # average overall miss latency
system.l2.demand_avg_mshr_miss_latency   83253.352774                       # average overall mshr miss latency
system.l2.demand_hits                         2599466                       # number of demand (read+write) hits
system.l2.demand_miss_latency             68371370500                       # number of demand (read+write) miss cycles
system.l2.demand_miss_rate                   0.263655                       # miss rate for demand accesses
system.l2.demand_misses                        930760                       # number of demand (read+write) misses
system.l2.demand_mshr_hits                     338190                       # number of demand (read+write) MSHR hits
system.l2.demand_mshr_miss_latency        49333356000                       # number of demand (read+write) MSHR miss cycles
system.l2.demand_mshr_miss_rate              0.167856                       # mshr miss rate for demand accesses
system.l2.demand_mshr_misses                   592569                       # number of demand (read+write) MSHR misses
system.l2.fast_writes                               0                       # number of fast writes performed
system.l2.mshr_cap_events                           0                       # number of times MSHR cap was activated
system.l2.no_allocate_misses                        0                       # Number of misses that were no-allocate
system.l2.occ_%::0                           0.266215                       # Average percentage of cache occupancy
system.l2.occ_%::1                           0.000622                       # Average percentage of cache occupancy
system.l2.occ_blocks::0                   4361.674219                       # Average occupied blocks per context
system.l2.occ_blocks::1                     10.193786                       # Average occupied blocks per context
system.l2.overall_accesses                    3530226                       # number of overall (read+write) accesses
system.l2.overall_avg_miss_latency       73457.572844                       # average overall miss latency
system.l2.overall_avg_mshr_miss_latency  87239.316188                       # average overall mshr miss latency
system.l2.overall_avg_mshr_uncacheable_latency     no_value                       # average overall mshr uncacheable latency
system.l2.overall_hits                        2599466                       # number of overall hits
system.l2.overall_miss_latency            68371370500                       # number of overall miss cycles
system.l2.overall_miss_rate                  0.263655                       # miss rate for overall accesses
system.l2.overall_misses                       930760                       # number of overall misses
system.l2.overall_mshr_hits                    338190                       # number of overall MSHR hits
system.l2.overall_mshr_miss_latency      317942379256                       # number of overall MSHR miss cycles
system.l2.overall_mshr_miss_rate             1.032366                       # mshr miss rate for overall accesses
system.l2.overall_mshr_misses                 3644485                       # number of overall MSHR misses
system.l2.overall_mshr_uncacheable_latency            0                       # number of overall MSHR uncacheable cycles
system.l2.overall_mshr_uncacheable_misses            0                       # number of overall MSHR uncacheable misses
system.l2.prefetch_accuracy                  0.850811                       # ratio of good prefetches to total prefetches
system.l2.prefetch_hits                       2596605                       # number of prefetched blocks that were accessed
system.l2.prefetcher.num_hwpf_already_in_prefetcher      3768835                       # number of hwpf that were already in the prefetch queue
system.l2.prefetcher.num_hwpf_evicted               0                       # number of hwpf removed due to no buffer left
system.l2.prefetcher.num_hwpf_identified      7073741                       # number of hwpf identified
system.l2.prefetcher.num_hwpf_issued          3115689                       # number of hwpf issued
system.l2.prefetcher.num_hwpf_removed_MSHR_hit       189215                       # number of hwpf removed because MSHR allocated
system.l2.prefetcher.num_hwpf_span_page             0                       # number of hwpf spanning a virtual page
system.l2.prefetcher.num_hwpf_squashed_from_miss            0                       # number of hwpf that got squashed due to a miss aborting calculation time
system.l2.replacements                        3639507                       # number of replacements
system.l2.sampled_refs                        3643935                       # Sample count of references to valid blocks.
system.l2.soft_prefetch_mshr_full                   0                       # number of mshr full events for SW prefetching instrutions
system.l2.tagsinuse                       4371.868005                       # Cycle average of tags in use
system.l2.total_refs                          2600438                       # Total number of references to valid blocks.
system.l2.warmup_cycle                              0                       # Cycle when the warmup percentage was hit.
system.l2.writebacks                             4475                       # number of writebacks
system.switch_cpus.dtb.data_accesses          2832022                       # DTB accesses
system.switch_cpus.dtb.data_acv                     0                       # DTB access violations
system.switch_cpus.dtb.data_hits              2558233                       # DTB hits
system.switch_cpus.dtb.data_misses             273789                       # DTB misses
system.switch_cpus.dtb.fetch_accesses               0                       # ITB accesses
system.switch_cpus.dtb.fetch_acv                    0                       # ITB acv
system.switch_cpus.dtb.fetch_hits                   0                       # ITB hits
system.switch_cpus.dtb.fetch_misses                 0                       # ITB misses
system.switch_cpus.dtb.read_accesses          2682476                       # DTB read accesses
system.switch_cpus.dtb.read_acv                     0                       # DTB read access violations
system.switch_cpus.dtb.read_hits              2409028                       # DTB read hits
system.switch_cpus.dtb.read_misses             273448                       # DTB read misses
system.switch_cpus.dtb.write_accesses          149546                       # DTB write accesses
system.switch_cpus.dtb.write_acv                    0                       # DTB write access violations
system.switch_cpus.dtb.write_hits              149205                       # DTB write hits
system.switch_cpus.dtb.write_misses               341                       # DTB write misses
system.switch_cpus.idle_fraction                    1                       # Percentage of idle cycles
system.switch_cpus.itb.data_accesses                0                       # DTB accesses
system.switch_cpus.itb.data_acv                     0                       # DTB access violations
system.switch_cpus.itb.data_hits                    0                       # DTB hits
system.switch_cpus.itb.data_misses                  0                       # DTB misses
system.switch_cpus.itb.fetch_accesses        10273803                       # ITB accesses
system.switch_cpus.itb.fetch_acv                    0                       # ITB acv
system.switch_cpus.itb.fetch_hits            10273790                       # ITB hits
system.switch_cpus.itb.fetch_misses                13                       # ITB misses
system.switch_cpus.itb.read_accesses                0                       # DTB read accesses
system.switch_cpus.itb.read_acv                     0                       # DTB read access violations
system.switch_cpus.itb.read_hits                    0                       # DTB read hits
system.switch_cpus.itb.read_misses                  0                       # DTB read misses
system.switch_cpus.itb.write_accesses               0                       # DTB write accesses
system.switch_cpus.itb.write_acv                    0                       # DTB write access violations
system.switch_cpus.itb.write_hits                   0                       # DTB write hits
system.switch_cpus.itb.write_misses                 0                       # DTB write misses
system.switch_cpus.not_idle_fraction                0                       # Percentage of non-idle cycles
system.switch_cpus.numCycles                 99807271                       # number of cpu cycles simulated
system.switch_cpus.num_insts                 10000001                       # Number of instructions executed
system.switch_cpus.num_refs                   2837031                       # Number of memory references
system.switch_cpus_1.BPredUnit.BTBCorrect            0                       # Number of correct BTB predictions (this stat may not work properly.
system.switch_cpus_1.BPredUnit.BTBHits        4374489                       # Number of BTB hits
system.switch_cpus_1.BPredUnit.BTBLookups      4560620                       # Number of BTB lookups
system.switch_cpus_1.BPredUnit.RASInCorrect           28                       # Number of incorrect RAS predictions.
system.switch_cpus_1.BPredUnit.condIncorrect        20486                       # Number of conditional branches incorrect
system.switch_cpus_1.BPredUnit.condPredicted      5241602                       # Number of conditional branches predicted
system.switch_cpus_1.BPredUnit.lookups        5387093                       # Number of BP lookups
system.switch_cpus_1.BPredUnit.usedRAS          53905                       # Number of times the RAS was used to get a target.
system.switch_cpus_1.commit.COM:branches      1639812                       # Number of branches committed
system.switch_cpus_1.commit.COM:bw_lim_events        60482                       # number cycles where commit BW limit reached
system.switch_cpus_1.commit.COM:bw_limited            0                       # number of insts not committed due to BW limits
system.switch_cpus_1.commit.COM:committed_per_cycle::samples     42837131                       # Number of insts commited each cycle
system.switch_cpus_1.commit.COM:committed_per_cycle::mean     0.240767                       # Number of insts commited each cycle
system.switch_cpus_1.commit.COM:committed_per_cycle::stdev     0.709829                       # Number of insts commited each cycle
system.switch_cpus_1.commit.COM:committed_per_cycle::underflows            0      0.00%      0.00% # Number of insts commited each cycle
system.switch_cpus_1.commit.COM:committed_per_cycle::0     36241711     84.60%     84.60% # Number of insts commited each cycle
system.switch_cpus_1.commit.COM:committed_per_cycle::1      4172341      9.74%     94.34% # Number of insts commited each cycle
system.switch_cpus_1.commit.COM:committed_per_cycle::2      1965966      4.59%     98.93% # Number of insts commited each cycle
system.switch_cpus_1.commit.COM:committed_per_cycle::3       138482      0.32%     99.26% # Number of insts commited each cycle
system.switch_cpus_1.commit.COM:committed_per_cycle::4        91802      0.21%     99.47% # Number of insts commited each cycle
system.switch_cpus_1.commit.COM:committed_per_cycle::5        86405      0.20%     99.67% # Number of insts commited each cycle
system.switch_cpus_1.commit.COM:committed_per_cycle::6        48654      0.11%     99.79% # Number of insts commited each cycle
system.switch_cpus_1.commit.COM:committed_per_cycle::7        31288      0.07%     99.86% # Number of insts commited each cycle
system.switch_cpus_1.commit.COM:committed_per_cycle::8        60482      0.14%    100.00% # Number of insts commited each cycle
system.switch_cpus_1.commit.COM:committed_per_cycle::overflows            0      0.00%    100.00% # Number of insts commited each cycle
system.switch_cpus_1.commit.COM:committed_per_cycle::min_value            0                       # Number of insts commited each cycle
system.switch_cpus_1.commit.COM:committed_per_cycle::max_value            8                       # Number of insts commited each cycle
system.switch_cpus_1.commit.COM:committed_per_cycle::total     42837131                       # Number of insts commited each cycle
system.switch_cpus_1.commit.COM:count        10313748                       # Number of instructions committed
system.switch_cpus_1.commit.COM:loads         2510912                       # Number of loads committed
system.switch_cpus_1.commit.COM:membars             0                       # Number of memory barriers committed
system.switch_cpus_1.commit.COM:refs          2655008                       # Number of memory references committed
system.switch_cpus_1.commit.COM:swp_count            0                       # Number of s/w prefetches committed
system.switch_cpus_1.commit.branchMispredicts        20146                       # The number of times a branch was mispredicted
system.switch_cpus_1.commit.commitCommittedInsts     10313748                       # The number of committed instructions
system.switch_cpus_1.commit.commitNonSpecStalls            1                       # The number of times commit has been forced to stall to communicate backwards
system.switch_cpus_1.commit.commitSquashedInsts     21877778                       # The number of squashed insts skipped by commit
system.switch_cpus_1.committedInsts          10000000                       # Number of Instructions Simulated
system.switch_cpus_1.committedInsts_total     10000000                       # Number of Instructions Simulated
system.switch_cpus_1.cpi                    11.307727                       # CPI: Cycles Per Instruction
system.switch_cpus_1.cpi_total              11.307727                       # CPI: Total CPI of All Threads
system.switch_cpus_1.decode.DECODE:BlockedCycles     28078148                       # Number of cycles decode is blocked
system.switch_cpus_1.decode.DECODE:BranchMispred          346                       # Number of times decode detected a branch misprediction
system.switch_cpus_1.decode.DECODE:BranchResolved        89201                       # Number of times decode resolved a branch
system.switch_cpus_1.decode.DECODE:DecodedInsts     33945371                       # Number of instructions handled by decode
system.switch_cpus_1.decode.DECODE:IdleCycles      7648478                       # Number of cycles decode is idle
system.switch_cpus_1.decode.DECODE:RunCycles      6489494                       # Number of cycles decode is running
system.switch_cpus_1.decode.DECODE:SquashCycles      2935818                       # Number of cycles decode is squashing
system.switch_cpus_1.decode.DECODE:SquashedInsts         1419                       # Number of squashed instructions handled by decode
system.switch_cpus_1.decode.DECODE:UnblockCycles       621010                       # Number of cycles decode is unblocking
system.switch_cpus_1.dtb.data_accesses        3997415                       # DTB accesses
system.switch_cpus_1.dtb.data_acv                   0                       # DTB access violations
system.switch_cpus_1.dtb.data_hits            3406181                       # DTB hits
system.switch_cpus_1.dtb.data_misses           591234                       # DTB misses
system.switch_cpus_1.dtb.fetch_accesses             0                       # ITB accesses
system.switch_cpus_1.dtb.fetch_acv                  0                       # ITB acv
system.switch_cpus_1.dtb.fetch_hits                 0                       # ITB hits
system.switch_cpus_1.dtb.fetch_misses               0                       # ITB misses
system.switch_cpus_1.dtb.read_accesses        3829257                       # DTB read accesses
system.switch_cpus_1.dtb.read_acv                   0                       # DTB read access violations
system.switch_cpus_1.dtb.read_hits            3238660                       # DTB read hits
system.switch_cpus_1.dtb.read_misses           590597                       # DTB read misses
system.switch_cpus_1.dtb.write_accesses        168158                       # DTB write accesses
system.switch_cpus_1.dtb.write_acv                  0                       # DTB write access violations
system.switch_cpus_1.dtb.write_hits            167521                       # DTB write hits
system.switch_cpus_1.dtb.write_misses             637                       # DTB write misses
system.switch_cpus_1.fetch.Branches           5387093                       # Number of branches that fetch encountered
system.switch_cpus_1.fetch.CacheLines         3237109                       # Number of cache lines fetched
system.switch_cpus_1.fetch.Cycles            10637021                       # Number of cycles fetch has run and was not squashing or blocked
system.switch_cpus_1.fetch.IcacheSquashes         4415                       # Number of outstanding Icache misses that were squashed
system.switch_cpus_1.fetch.Insts             35335562                       # Number of instructions fetch has processed
system.switch_cpus_1.fetch.SquashCycles        316028                       # Number of cycles fetch has spent squashing
system.switch_cpus_1.fetch.branchRate        0.047641                       # Number of branch fetches per cycle
system.switch_cpus_1.fetch.icacheStallCycles      3237109                       # Number of cycles fetch is stalled on an Icache miss
system.switch_cpus_1.fetch.predictedBranches      4428394                       # Number of branches that fetch has predicted taken
system.switch_cpus_1.fetch.rate              0.312490                       # Number of inst fetches per cycle
system.switch_cpus_1.fetch.rateDist::samples     45772949                       # Number of instructions fetched each cycle (Total)
system.switch_cpus_1.fetch.rateDist::mean     0.771975                       # Number of instructions fetched each cycle (Total)
system.switch_cpus_1.fetch.rateDist::stdev     1.984217                       # Number of instructions fetched each cycle (Total)
system.switch_cpus_1.fetch.rateDist::underflows            0      0.00%      0.00% # Number of instructions fetched each cycle (Total)
system.switch_cpus_1.fetch.rateDist::0       38373097     83.83%     83.83% # Number of instructions fetched each cycle (Total)
system.switch_cpus_1.fetch.rateDist::1         935867      2.04%     85.88% # Number of instructions fetched each cycle (Total)
system.switch_cpus_1.fetch.rateDist::2          74576      0.16%     86.04% # Number of instructions fetched each cycle (Total)
system.switch_cpus_1.fetch.rateDist::3          62833      0.14%     86.18% # Number of instructions fetched each cycle (Total)
system.switch_cpus_1.fetch.rateDist::4        4045749      8.84%     95.02% # Number of instructions fetched each cycle (Total)
system.switch_cpus_1.fetch.rateDist::5          56076      0.12%     95.14% # Number of instructions fetched each cycle (Total)
system.switch_cpus_1.fetch.rateDist::6          82080      0.18%     95.32% # Number of instructions fetched each cycle (Total)
system.switch_cpus_1.fetch.rateDist::7          35180      0.08%     95.40% # Number of instructions fetched each cycle (Total)
system.switch_cpus_1.fetch.rateDist::8        2107491      4.60%    100.00% # Number of instructions fetched each cycle (Total)
system.switch_cpus_1.fetch.rateDist::overflows            0      0.00%    100.00% # Number of instructions fetched each cycle (Total)
system.switch_cpus_1.fetch.rateDist::min_value            0                       # Number of instructions fetched each cycle (Total)
system.switch_cpus_1.fetch.rateDist::max_value            8                       # Number of instructions fetched each cycle (Total)
system.switch_cpus_1.fetch.rateDist::total     45772949                       # Number of instructions fetched each cycle (Total)
system.switch_cpus_1.idleCycles              67304323                       # Total number of cycles that the CPU has spent unscheduled due to idling
system.switch_cpus_1.iew.EXEC:branches        2328502                       # Number of branches executed
system.switch_cpus_1.iew.EXEC:nop              363514                       # number of nop insts executed
system.switch_cpus_1.iew.EXEC:rate           0.126239                       # Inst execution rate
system.switch_cpus_1.iew.EXEC:refs            4003789                       # number of memory reference insts executed
system.switch_cpus_1.iew.EXEC:stores           168158                       # Number of stores executed
system.switch_cpus_1.iew.EXEC:swp                   0                       # number of swp insts executed
system.switch_cpus_1.iew.WB:consumers        12081430                       # num instructions consuming a value
system.switch_cpus_1.iew.WB:count            13660588                       # cumulative count of insts written-back
system.switch_cpus_1.iew.WB:fanout           0.654900                       # average fanout of values written-back
system.switch_cpus_1.iew.WB:penalized               0                       # number of instrctions required to write to 'other' IQ
system.switch_cpus_1.iew.WB:penalized_rate            0                       # fraction of instructions written-back that wrote to 'other' IQ
system.switch_cpus_1.iew.WB:producers         7912132                       # num instructions producing a value
system.switch_cpus_1.iew.WB:rate             0.120808                       # insts written-back per cycle
system.switch_cpus_1.iew.WB:sent             14252920                       # cumulative count of insts sent to commit
system.switch_cpus_1.iew.branchMispredicts        22985                       # Number of branch mispredicts detected at execute
system.switch_cpus_1.iew.iewBlockCycles      18285963                       # Number of cycles IEW is blocking
system.switch_cpus_1.iew.iewDispLoadInsts      8756598                       # Number of dispatched load instructions
system.switch_cpus_1.iew.iewDispNonSpecInsts            1                       # Number of dispatched non-speculative instructions
system.switch_cpus_1.iew.iewDispSquashedInsts        19829                       # Number of squashed instructions skipped by dispatch
system.switch_cpus_1.iew.iewDispStoreInsts       184830                       # Number of dispatched store instructions
system.switch_cpus_1.iew.iewDispatchedInsts     32623575                       # Number of instructions dispatched to IQ
system.switch_cpus_1.iew.iewExecLoadInsts      3835631                       # Number of load instructions executed
system.switch_cpus_1.iew.iewExecSquashedInsts        18706                       # Number of squashed instructions skipped in execute
system.switch_cpus_1.iew.iewExecutedInsts     14274781                       # Number of executed instructions
system.switch_cpus_1.iew.iewIQFullEvents       401142                       # Number of times the IQ has become full, causing a stall
system.switch_cpus_1.iew.iewIdleCycles              0                       # Number of cycles IEW is idle
system.switch_cpus_1.iew.iewLSQFullEvents          828                       # Number of times the LSQ has become full, causing a stall
system.switch_cpus_1.iew.iewSquashCycles      2935818                       # Number of cycles IEW is squashing
system.switch_cpus_1.iew.iewUnblockCycles       974882                       # Number of cycles IEW is unblocking
system.switch_cpus_1.iew.lsq.thread.0.blockedLoads            0                       # Number of blocked loads due to partial load-store forwarding
system.switch_cpus_1.iew.lsq.thread.0.cacheBlocked         6293                       # Number of times an access to memory failed due to the cache being blocked
system.switch_cpus_1.iew.lsq.thread.0.forwLoads        32891                       # Number of loads that had data forwarded from stores
system.switch_cpus_1.iew.lsq.thread.0.ignoredResponses          263                       # Number of memory responses ignored because the instruction is squashed
system.switch_cpus_1.iew.lsq.thread.0.invAddrLoads            0                       # Number of loads ignored due to an invalid address
system.switch_cpus_1.iew.lsq.thread.0.invAddrSwpfs            0                       # Number of software prefetches ignored due to an invalid address
system.switch_cpus_1.iew.lsq.thread.0.memOrderViolation          571                       # Number of memory ordering violations
system.switch_cpus_1.iew.lsq.thread.0.rescheduledLoads            0                       # Number of loads that were rescheduled
system.switch_cpus_1.iew.lsq.thread.0.squashedLoads      6245665                       # Number of loads squashed
system.switch_cpus_1.iew.lsq.thread.0.squashedStores        40734                       # Number of stores squashed
system.switch_cpus_1.iew.memOrderViolationEvents          571                       # Number of memory order violations
system.switch_cpus_1.iew.predictedNotTakenIncorrect         7223                       # Number of branches that were predicted not taken incorrectly
system.switch_cpus_1.iew.predictedTakenIncorrect        15762                       # Number of branches that were predicted taken incorrectly
system.switch_cpus_1.ipc                     0.088435                       # IPC: Instructions Per Cycle
system.switch_cpus_1.ipc_total               0.088435                       # IPC: Total IPC of All Threads
system.switch_cpus_1.iq.ISSUE:FU_type_0::No_OpClass            0      0.00%      0.00% # Type of FU issued
system.switch_cpus_1.iq.ISSUE:FU_type_0::IntAlu     10276914     71.90%     71.90% # Type of FU issued
system.switch_cpus_1.iq.ISSUE:FU_type_0::IntMult         1084      0.01%     71.91% # Type of FU issued
system.switch_cpus_1.iq.ISSUE:FU_type_0::IntDiv            0      0.00%     71.91% # Type of FU issued
system.switch_cpus_1.iq.ISSUE:FU_type_0::FloatAdd         4210      0.03%     71.94% # Type of FU issued
system.switch_cpus_1.iq.ISSUE:FU_type_0::FloatCmp            0      0.00%     71.94% # Type of FU issued
system.switch_cpus_1.iq.ISSUE:FU_type_0::FloatCvt         1100      0.01%     71.94% # Type of FU issued
system.switch_cpus_1.iq.ISSUE:FU_type_0::FloatMult          220      0.00%     71.95% # Type of FU issued
system.switch_cpus_1.iq.ISSUE:FU_type_0::FloatDiv            0      0.00%     71.95% # Type of FU issued
system.switch_cpus_1.iq.ISSUE:FU_type_0::FloatSqrt            0      0.00%     71.95% # Type of FU issued
system.switch_cpus_1.iq.ISSUE:FU_type_0::MemRead      3840064     26.87%     98.81% # Type of FU issued
system.switch_cpus_1.iq.ISSUE:FU_type_0::MemWrite       169895      1.19%    100.00% # Type of FU issued
system.switch_cpus_1.iq.ISSUE:FU_type_0::IprAccess            0      0.00%    100.00% # Type of FU issued
system.switch_cpus_1.iq.ISSUE:FU_type_0::InstPrefetch            0      0.00%    100.00% # Type of FU issued
system.switch_cpus_1.iq.ISSUE:FU_type_0::total     14293487                       # Type of FU issued
system.switch_cpus_1.iq.ISSUE:fu_busy_cnt         8936                       # FU busy when requested
system.switch_cpus_1.iq.ISSUE:fu_busy_rate     0.000625                       # FU busy rate (busy events/executed inst)
system.switch_cpus_1.iq.ISSUE:fu_full::No_OpClass            0      0.00%      0.00% # attempts to use FU when none available
system.switch_cpus_1.iq.ISSUE:fu_full::IntAlu           67      0.75%      0.75% # attempts to use FU when none available
system.switch_cpus_1.iq.ISSUE:fu_full::IntMult            0      0.00%      0.75% # attempts to use FU when none available
system.switch_cpus_1.iq.ISSUE:fu_full::IntDiv            0      0.00%      0.75% # attempts to use FU when none available
system.switch_cpus_1.iq.ISSUE:fu_full::FloatAdd            0      0.00%      0.75% # attempts to use FU when none available
system.switch_cpus_1.iq.ISSUE:fu_full::FloatCmp            0      0.00%      0.75% # attempts to use FU when none available
system.switch_cpus_1.iq.ISSUE:fu_full::FloatCvt            0      0.00%      0.75% # attempts to use FU when none available
system.switch_cpus_1.iq.ISSUE:fu_full::FloatMult            0      0.00%      0.75% # attempts to use FU when none available
system.switch_cpus_1.iq.ISSUE:fu_full::FloatDiv            0      0.00%      0.75% # attempts to use FU when none available
system.switch_cpus_1.iq.ISSUE:fu_full::FloatSqrt            0      0.00%      0.75% # attempts to use FU when none available
system.switch_cpus_1.iq.ISSUE:fu_full::MemRead         5021     56.19%     56.94% # attempts to use FU when none available
system.switch_cpus_1.iq.ISSUE:fu_full::MemWrite         3848     43.06%    100.00% # attempts to use FU when none available
system.switch_cpus_1.iq.ISSUE:fu_full::IprAccess            0      0.00%    100.00% # attempts to use FU when none available
system.switch_cpus_1.iq.ISSUE:fu_full::InstPrefetch            0      0.00%    100.00% # attempts to use FU when none available
system.switch_cpus_1.iq.ISSUE:issued_per_cycle::samples     45772949                       # Number of insts issued each cycle
system.switch_cpus_1.iq.ISSUE:issued_per_cycle::mean     0.312269                       # Number of insts issued each cycle
system.switch_cpus_1.iq.ISSUE:issued_per_cycle::stdev     0.703400                       # Number of insts issued each cycle
system.switch_cpus_1.iq.ISSUE:issued_per_cycle::underflows            0      0.00%      0.00% # Number of insts issued each cycle
system.switch_cpus_1.iq.ISSUE:issued_per_cycle::0     35669490     77.93%     77.93% # Number of insts issued each cycle
system.switch_cpus_1.iq.ISSUE:issued_per_cycle::1      7587869     16.58%     94.50% # Number of insts issued each cycle
system.switch_cpus_1.iq.ISSUE:issued_per_cycle::2      1237406      2.70%     97.21% # Number of insts issued each cycle
system.switch_cpus_1.iq.ISSUE:issued_per_cycle::3      1004268      2.19%     99.40% # Number of insts issued each cycle
system.switch_cpus_1.iq.ISSUE:issued_per_cycle::4       171936      0.38%     99.78% # Number of insts issued each cycle
system.switch_cpus_1.iq.ISSUE:issued_per_cycle::5        86530      0.19%     99.97% # Number of insts issued each cycle
system.switch_cpus_1.iq.ISSUE:issued_per_cycle::6        10762      0.02%     99.99% # Number of insts issued each cycle
system.switch_cpus_1.iq.ISSUE:issued_per_cycle::7         4468      0.01%    100.00% # Number of insts issued each cycle
system.switch_cpus_1.iq.ISSUE:issued_per_cycle::8          220      0.00%    100.00% # Number of insts issued each cycle
system.switch_cpus_1.iq.ISSUE:issued_per_cycle::overflows            0      0.00%    100.00% # Number of insts issued each cycle
system.switch_cpus_1.iq.ISSUE:issued_per_cycle::min_value            0                       # Number of insts issued each cycle
system.switch_cpus_1.iq.ISSUE:issued_per_cycle::max_value            8                       # Number of insts issued each cycle
system.switch_cpus_1.iq.ISSUE:issued_per_cycle::total     45772949                       # Number of insts issued each cycle
system.switch_cpus_1.iq.ISSUE:rate           0.126405                       # Inst issue rate
system.switch_cpus_1.iq.iqInstsAdded         32260060                       # Number of instructions added to the IQ (excludes non-spec)
system.switch_cpus_1.iq.iqInstsIssued        14293487                       # Number of instructions issued
system.switch_cpus_1.iq.iqNonSpecInstsAdded            1                       # Number of non-speculative instructions added to the IQ
system.switch_cpus_1.iq.iqSquashedInstsExamined     22240880                       # Number of squashed instructions iterated over during squash; mainly for profiling
system.switch_cpus_1.iq.iqSquashedInstsIssued          487                       # Number of squashed instructions issued
system.switch_cpus_1.iq.iqSquashedOperandsExamined     31590478                       # Number of squashed operands that are examined and possibly removed from graph
system.switch_cpus_1.itb.data_accesses              0                       # DTB accesses
system.switch_cpus_1.itb.data_acv                   0                       # DTB access violations
system.switch_cpus_1.itb.data_hits                  0                       # DTB hits
system.switch_cpus_1.itb.data_misses                0                       # DTB misses
system.switch_cpus_1.itb.fetch_accesses       3237170                       # ITB accesses
system.switch_cpus_1.itb.fetch_acv                  0                       # ITB acv
system.switch_cpus_1.itb.fetch_hits           3237109                       # ITB hits
system.switch_cpus_1.itb.fetch_misses              61                       # ITB misses
system.switch_cpus_1.itb.read_accesses              0                       # DTB read accesses
system.switch_cpus_1.itb.read_acv                   0                       # DTB read access violations
system.switch_cpus_1.itb.read_hits                  0                       # DTB read hits
system.switch_cpus_1.itb.read_misses                0                       # DTB read misses
system.switch_cpus_1.itb.write_accesses             0                       # DTB write accesses
system.switch_cpus_1.itb.write_acv                  0                       # DTB write access violations
system.switch_cpus_1.itb.write_hits                 0                       # DTB write hits
system.switch_cpus_1.itb.write_misses               0                       # DTB write misses
system.switch_cpus_1.memDep0.conflictingLoads        66785                       # Number of conflicting loads.
system.switch_cpus_1.memDep0.conflictingStores         2546                       # Number of conflicting stores.
system.switch_cpus_1.memDep0.insertedLoads      8756598                       # Number of loads inserted to the mem dependence unit.
system.switch_cpus_1.memDep0.insertedStores       184830                       # Number of stores inserted to the mem dependence unit.
system.switch_cpus_1.numCycles              113077272                       # number of cpu cycles simulated
system.switch_cpus_1.rename.RENAME:BlockCycles     24080895                       # Number of cycles rename is blocking
system.switch_cpus_1.rename.RENAME:CommittedMaps      8255878                       # Number of HB maps that are committed
system.switch_cpus_1.rename.RENAME:IQFullEvents      4189715                       # Number of times rename has blocked due to IQ full
system.switch_cpus_1.rename.RENAME:IdleCycles      8221202                       # Number of cycles rename is idle
system.switch_cpus_1.rename.RENAME:LSQFullEvents        26230                       # Number of times rename has blocked due to LSQ full
system.switch_cpus_1.rename.RENAME:ROBFullEvents          919                       # Number of times rename has blocked due to ROB full
system.switch_cpus_1.rename.RENAME:RenameLookups     53242016                       # Number of register rename lookups that rename has made
system.switch_cpus_1.rename.RENAME:RenamedInsts     33051683                       # Number of instructions processed by rename
system.switch_cpus_1.rename.RENAME:RenamedOperands     27501709                       # Number of destination operands rename has renamed
system.switch_cpus_1.rename.RENAME:RunCycles      6539036                       # Number of cycles rename is running
system.switch_cpus_1.rename.RENAME:SquashCycles      2935818                       # Number of cycles rename is squashing
system.switch_cpus_1.rename.RENAME:UnblockCycles      3995986                       # Number of cycles rename is unblocking
system.switch_cpus_1.rename.RENAME:UndoneMaps     19245765                       # Number of HB maps that are undone due to squashing
system.switch_cpus_1.rename.RENAME:serializeStallCycles           11                       # count of cycles rename stalled for serializing inst
system.switch_cpus_1.rename.RENAME:serializingInsts            1                       # count of serializing insts renamed
system.switch_cpus_1.rename.RENAME:skidInsts      7520926                       # count of insts added to the skid buffer
system.switch_cpus_1.rename.RENAME:tempSerializingInsts            1                       # count of temporary serializing insts renamed
system.switch_cpus_1.timesIdled               1175993                       # Number of times that the entire CPU went into an idle state and unscheduled itself

---------- End Simulation Statistics   ----------
