
---------- Begin Simulation Statistics ----------
host_inst_rate                                 356888                       # Simulator instruction rate (inst/s)
host_mem_usage                                 402748                       # Number of bytes of host memory used
host_seconds                                    56.04                       # Real time elapsed on the host
host_tick_rate                              320488353                       # Simulator tick rate (ticks/s)
sim_freq                                 1000000000000                       # Frequency of simulated ticks
sim_insts                                    20000003                       # Number of instructions simulated
sim_seconds                                  0.017960                       # Number of seconds simulated
sim_ticks                                 17960212500                       # Number of ticks simulated
system.cpu.dcache.ReadReq_accesses            3332999                       # number of ReadReq accesses(hits+misses)
system.cpu.dcache.ReadReq_avg_miss_latency 22580.519765                       # average ReadReq miss latency
system.cpu.dcache.ReadReq_avg_mshr_miss_latency 19571.308785                       # average ReadReq mshr miss latency
system.cpu.dcache.ReadReq_hits                3241804                       # number of ReadReq hits
system.cpu.dcache.ReadReq_miss_latency     2059230500                       # number of ReadReq miss cycles
system.cpu.dcache.ReadReq_miss_rate          0.027361                       # miss rate for ReadReq accesses
system.cpu.dcache.ReadReq_misses                91195                       # number of ReadReq misses
system.cpu.dcache.ReadReq_mshr_hits              7117                       # number of ReadReq MSHR hits
system.cpu.dcache.ReadReq_mshr_miss_latency   1645516500                       # number of ReadReq MSHR miss cycles
system.cpu.dcache.ReadReq_mshr_miss_rate     0.025226                       # mshr miss rate for ReadReq accesses
system.cpu.dcache.ReadReq_mshr_misses           84078                       # number of ReadReq MSHR misses
system.cpu.dcache.WriteReq_accesses           2822830                       # number of WriteReq accesses(hits+misses)
system.cpu.dcache.WriteReq_avg_miss_latency 25539.244515                       # average WriteReq miss latency
system.cpu.dcache.WriteReq_avg_mshr_miss_latency 22734.211971                       # average WriteReq mshr miss latency
system.cpu.dcache.WriteReq_hits               2818409                       # number of WriteReq hits
system.cpu.dcache.WriteReq_miss_latency     112909000                       # number of WriteReq miss cycles
system.cpu.dcache.WriteReq_miss_rate         0.001566                       # miss rate for WriteReq accesses
system.cpu.dcache.WriteReq_misses                4421                       # number of WriteReq misses
system.cpu.dcache.WriteReq_mshr_hits              778                       # number of WriteReq MSHR hits
system.cpu.dcache.WriteReq_mshr_miss_latency     82798000                       # number of WriteReq MSHR miss cycles
system.cpu.dcache.WriteReq_mshr_miss_rate     0.001290                       # mshr miss rate for WriteReq accesses
system.cpu.dcache.WriteReq_mshr_misses           3642                       # number of WriteReq MSHR misses
system.cpu.dcache.avg_blocked_cycles::no_mshrs     no_value                       # average number of cycles each access was blocked
system.cpu.dcache.avg_blocked_cycles::no_targets 82482.142857                       # average number of cycles each access was blocked
system.cpu.dcache.avg_refs                  69.671268                       # Average number of references to valid blocks.
system.cpu.dcache.blocked::no_mshrs                 0                       # number of cycles access was blocked
system.cpu.dcache.blocked::no_targets             112                       # number of cycles access was blocked
system.cpu.dcache.blocked_cycles::no_mshrs            0                       # number of cycles access was blocked
system.cpu.dcache.blocked_cycles::no_targets      9238000                       # number of cycles access was blocked
system.cpu.dcache.cache_copies                      0                       # number of cache copies performed
system.cpu.dcache.demand_accesses             6155829                       # number of demand (read+write) accesses
system.cpu.dcache.demand_avg_miss_latency 22717.322415                       # average overall miss latency
system.cpu.dcache.demand_avg_mshr_miss_latency 19702.627679                       # average overall mshr miss latency
system.cpu.dcache.demand_hits                 6060213                       # number of demand (read+write) hits
system.cpu.dcache.demand_miss_latency      2172139500                       # number of demand (read+write) miss cycles
system.cpu.dcache.demand_miss_rate           0.015533                       # miss rate for demand accesses
system.cpu.dcache.demand_misses                 95616                       # number of demand (read+write) misses
system.cpu.dcache.demand_mshr_hits               7895                       # number of demand (read+write) MSHR hits
system.cpu.dcache.demand_mshr_miss_latency   1728314500                       # number of demand (read+write) MSHR miss cycles
system.cpu.dcache.demand_mshr_miss_rate      0.014250                       # mshr miss rate for demand accesses
system.cpu.dcache.demand_mshr_misses            87720                       # number of demand (read+write) MSHR misses
system.cpu.dcache.fast_writes                       0                       # number of fast writes performed
system.cpu.dcache.mshr_cap_events                   0                       # number of times MSHR cap was activated
system.cpu.dcache.no_allocate_misses                0                       # Number of misses that were no-allocate
system.cpu.dcache.occ_%::0                   0.980713                       # Average percentage of cache occupancy
system.cpu.dcache.occ_blocks::0           1004.250501                       # Average occupied blocks per context
system.cpu.dcache.overall_accesses            6155829                       # number of overall (read+write) accesses
system.cpu.dcache.overall_avg_miss_latency 22717.322415                       # average overall miss latency
system.cpu.dcache.overall_avg_mshr_miss_latency 19702.627679                       # average overall mshr miss latency
system.cpu.dcache.overall_avg_mshr_uncacheable_latency     no_value                       # average overall mshr uncacheable latency
system.cpu.dcache.overall_hits                6060213                       # number of overall hits
system.cpu.dcache.overall_miss_latency     2172139500                       # number of overall miss cycles
system.cpu.dcache.overall_miss_rate          0.015533                       # miss rate for overall accesses
system.cpu.dcache.overall_misses                95616                       # number of overall misses
system.cpu.dcache.overall_mshr_hits              7895                       # number of overall MSHR hits
system.cpu.dcache.overall_mshr_miss_latency   1728314500                       # number of overall MSHR miss cycles
system.cpu.dcache.overall_mshr_miss_rate     0.014250                       # mshr miss rate for overall accesses
system.cpu.dcache.overall_mshr_misses           87720                       # number of overall MSHR misses
system.cpu.dcache.overall_mshr_uncacheable_latency            0                       # number of overall MSHR uncacheable cycles
system.cpu.dcache.overall_mshr_uncacheable_misses            0                       # number of overall MSHR uncacheable misses
system.cpu.dcache.prefetch_accuracy          no_value                       # ratio of good prefetches to total prefetches
system.cpu.dcache.prefetch_hits                     0                       # number of prefetched blocks that were accessed
system.cpu.dcache.replacements                  85974                       # number of replacements
system.cpu.dcache.sampled_refs                  86998                       # Sample count of references to valid blocks.
system.cpu.dcache.soft_prefetch_mshr_full            0                       # number of mshr full events for SW prefetching instrutions
system.cpu.dcache.tagsinuse               1004.250501                       # Cycle average of tags in use
system.cpu.dcache.total_refs                  6061261                       # Total number of references to valid blocks.
system.cpu.dcache.warmup_cycle           502103135000                       # Cycle when the warmup percentage was hit.
system.cpu.dcache.writebacks                     3599                       # number of writebacks
system.cpu.dtb.data_accesses                        1                       # DTB accesses
system.cpu.dtb.data_acv                             0                       # DTB access violations
system.cpu.dtb.data_hits                            1                       # DTB hits
system.cpu.dtb.data_misses                          0                       # DTB misses
system.cpu.dtb.fetch_accesses                       0                       # ITB accesses
system.cpu.dtb.fetch_acv                            0                       # ITB acv
system.cpu.dtb.fetch_hits                           0                       # ITB hits
system.cpu.dtb.fetch_misses                         0                       # ITB misses
system.cpu.dtb.read_accesses                        0                       # DTB read accesses
system.cpu.dtb.read_acv                             0                       # DTB read access violations
system.cpu.dtb.read_hits                            0                       # DTB read hits
system.cpu.dtb.read_misses                          0                       # DTB read misses
system.cpu.dtb.write_accesses                       1                       # DTB write accesses
system.cpu.dtb.write_acv                            0                       # DTB write access violations
system.cpu.dtb.write_hits                           1                       # DTB write hits
system.cpu.dtb.write_misses                         0                       # DTB write misses
system.cpu.icache.ReadReq_accesses           12248001                       # number of ReadReq accesses(hits+misses)
system.cpu.icache.ReadReq_avg_miss_latency 48846.153846                       # average ReadReq miss latency
system.cpu.icache.ReadReq_avg_mshr_miss_latency        57250                       # average ReadReq mshr miss latency
system.cpu.icache.ReadReq_hits               12247988                       # number of ReadReq hits
system.cpu.icache.ReadReq_miss_latency         635000                       # number of ReadReq miss cycles
system.cpu.icache.ReadReq_miss_rate          0.000001                       # miss rate for ReadReq accesses
system.cpu.icache.ReadReq_misses                   13                       # number of ReadReq misses
system.cpu.icache.ReadReq_mshr_hits                 4                       # number of ReadReq MSHR hits
system.cpu.icache.ReadReq_mshr_miss_latency       458000                       # number of ReadReq MSHR miss cycles
system.cpu.icache.ReadReq_mshr_miss_rate     0.000001                       # mshr miss rate for ReadReq accesses
system.cpu.icache.ReadReq_mshr_misses               8                       # number of ReadReq MSHR misses
system.cpu.icache.avg_blocked_cycles::no_mshrs     no_value                       # average number of cycles each access was blocked
system.cpu.icache.avg_blocked_cycles::no_targets        23500                       # average number of cycles each access was blocked
system.cpu.icache.avg_refs               1360887.555556                       # Average number of references to valid blocks.
system.cpu.icache.blocked::no_mshrs                 0                       # number of cycles access was blocked
system.cpu.icache.blocked::no_targets               1                       # number of cycles access was blocked
system.cpu.icache.blocked_cycles::no_mshrs            0                       # number of cycles access was blocked
system.cpu.icache.blocked_cycles::no_targets        23500                       # number of cycles access was blocked
system.cpu.icache.cache_copies                      0                       # number of cache copies performed
system.cpu.icache.demand_accesses            12248001                       # number of demand (read+write) accesses
system.cpu.icache.demand_avg_miss_latency 48846.153846                       # average overall miss latency
system.cpu.icache.demand_avg_mshr_miss_latency        57250                       # average overall mshr miss latency
system.cpu.icache.demand_hits                12247988                       # number of demand (read+write) hits
system.cpu.icache.demand_miss_latency          635000                       # number of demand (read+write) miss cycles
system.cpu.icache.demand_miss_rate           0.000001                       # miss rate for demand accesses
system.cpu.icache.demand_misses                    13                       # number of demand (read+write) misses
system.cpu.icache.demand_mshr_hits                  4                       # number of demand (read+write) MSHR hits
system.cpu.icache.demand_mshr_miss_latency       458000                       # number of demand (read+write) MSHR miss cycles
system.cpu.icache.demand_mshr_miss_rate      0.000001                       # mshr miss rate for demand accesses
system.cpu.icache.demand_mshr_misses                8                       # number of demand (read+write) MSHR misses
system.cpu.icache.fast_writes                       0                       # number of fast writes performed
system.cpu.icache.mshr_cap_events                   0                       # number of times MSHR cap was activated
system.cpu.icache.no_allocate_misses                0                       # Number of misses that were no-allocate
system.cpu.icache.occ_%::0                   0.012843                       # Average percentage of cache occupancy
system.cpu.icache.occ_blocks::0              6.575421                       # Average occupied blocks per context
system.cpu.icache.overall_accesses           12248001                       # number of overall (read+write) accesses
system.cpu.icache.overall_avg_miss_latency 48846.153846                       # average overall miss latency
system.cpu.icache.overall_avg_mshr_miss_latency        57250                       # average overall mshr miss latency
system.cpu.icache.overall_avg_mshr_uncacheable_latency     no_value                       # average overall mshr uncacheable latency
system.cpu.icache.overall_hits               12247988                       # number of overall hits
system.cpu.icache.overall_miss_latency         635000                       # number of overall miss cycles
system.cpu.icache.overall_miss_rate          0.000001                       # miss rate for overall accesses
system.cpu.icache.overall_misses                   13                       # number of overall misses
system.cpu.icache.overall_mshr_hits                 4                       # number of overall MSHR hits
system.cpu.icache.overall_mshr_miss_latency       458000                       # number of overall MSHR miss cycles
system.cpu.icache.overall_mshr_miss_rate     0.000001                       # mshr miss rate for overall accesses
system.cpu.icache.overall_mshr_misses               8                       # number of overall MSHR misses
system.cpu.icache.overall_mshr_uncacheable_latency            0                       # number of overall MSHR uncacheable cycles
system.cpu.icache.overall_mshr_uncacheable_misses            0                       # number of overall MSHR uncacheable misses
system.cpu.icache.prefetch_accuracy          no_value                       # ratio of good prefetches to total prefetches
system.cpu.icache.prefetch_hits                     0                       # number of prefetched blocks that were accessed
system.cpu.icache.replacements                      0                       # number of replacements
system.cpu.icache.sampled_refs                      9                       # Sample count of references to valid blocks.
system.cpu.icache.soft_prefetch_mshr_full            0                       # number of mshr full events for SW prefetching instrutions
system.cpu.icache.tagsinuse                  6.575421                       # Cycle average of tags in use
system.cpu.icache.total_refs                 12247988                       # Total number of references to valid blocks.
system.cpu.icache.warmup_cycle                      0                       # Cycle when the warmup percentage was hit.
system.cpu.icache.writebacks                        0                       # number of writebacks
system.cpu.idle_fraction                            0                       # Percentage of idle cycles
system.cpu.itb.data_accesses                        0                       # DTB accesses
system.cpu.itb.data_acv                             0                       # DTB access violations
system.cpu.itb.data_hits                            0                       # DTB hits
system.cpu.itb.data_misses                          0                       # DTB misses
system.cpu.itb.fetch_accesses                       2                       # ITB accesses
system.cpu.itb.fetch_acv                            0                       # ITB acv
system.cpu.itb.fetch_hits                           2                       # ITB hits
system.cpu.itb.fetch_misses                         0                       # ITB misses
system.cpu.itb.read_accesses                        0                       # DTB read accesses
system.cpu.itb.read_acv                             0                       # DTB read access violations
system.cpu.itb.read_hits                            0                       # DTB read hits
system.cpu.itb.read_misses                          0                       # DTB read misses
system.cpu.itb.write_accesses                       0                       # DTB write accesses
system.cpu.itb.write_acv                            0                       # DTB write access violations
system.cpu.itb.write_hits                           0                       # DTB write hits
system.cpu.itb.write_misses                         0                       # DTB write misses
system.cpu.not_idle_fraction                        1                       # Percentage of non-idle cycles
system.cpu.numCycles                                2                       # number of cpu cycles simulated
system.cpu.num_insts                                2                       # Number of instructions executed
system.cpu.num_refs                                 1                       # Number of memory references
system.cpu.workload.PROG:num_syscalls               0                       # Number of system calls
system.l2.HardPFReq_avg_mshr_miss_latency 76027.494974                       # average HardPFReq mshr miss latency
system.l2.HardPFReq_mshr_miss_latency      7434804761                       # number of HardPFReq MSHR miss cycles
system.l2.HardPFReq_mshr_miss_rate                inf                       # mshr miss rate for HardPFReq accesses
system.l2.HardPFReq_mshr_misses                 97791                       # number of HardPFReq MSHR misses
system.l2.ReadExReq_accesses                     2920                       # number of ReadExReq accesses(hits+misses)
system.l2.ReadExReq_avg_miss_latency            68625                       # average ReadExReq miss latency
system.l2.ReadExReq_avg_mshr_miss_latency 59409.090909                       # average ReadExReq mshr miss latency
system.l2.ReadExReq_hits                         2908                       # number of ReadExReq hits
system.l2.ReadExReq_miss_latency               823500                       # number of ReadExReq miss cycles
system.l2.ReadExReq_miss_rate                0.004110                       # miss rate for ReadExReq accesses
system.l2.ReadExReq_misses                         12                       # number of ReadExReq misses
system.l2.ReadExReq_mshr_miss_latency          653500                       # number of ReadExReq MSHR miss cycles
system.l2.ReadExReq_mshr_miss_rate           0.003767                       # mshr miss rate for ReadExReq accesses
system.l2.ReadExReq_mshr_misses                    11                       # number of ReadExReq MSHR misses
system.l2.ReadReq_accesses                      84087                       # number of ReadReq accesses(hits+misses)
system.l2.ReadReq_avg_miss_latency       75184.946531                       # average ReadReq miss latency
system.l2.ReadReq_avg_mshr_miss_latency  59795.001844                       # average ReadReq mshr miss latency
system.l2.ReadReq_hits                          73146                       # number of ReadReq hits
system.l2.ReadReq_miss_latency              822598500                       # number of ReadReq miss cycles
system.l2.ReadReq_miss_rate                  0.130115                       # miss rate for ReadReq accesses
system.l2.ReadReq_misses                        10941                       # number of ReadReq misses
system.l2.ReadReq_mshr_hits                        96                       # number of ReadReq MSHR hits
system.l2.ReadReq_mshr_miss_latency         648417000                       # number of ReadReq MSHR miss cycles
system.l2.ReadReq_mshr_miss_rate             0.128962                       # mshr miss rate for ReadReq accesses
system.l2.ReadReq_mshr_misses                   10844                       # number of ReadReq MSHR misses
system.l2.UpgradeReq_accesses                     723                       # number of UpgradeReq accesses(hits+misses)
system.l2.UpgradeReq_avg_miss_latency    67944.674965                       # average UpgradeReq miss latency
system.l2.UpgradeReq_avg_mshr_miss_latency 52136.237898                       # average UpgradeReq mshr miss latency
system.l2.UpgradeReq_miss_latency            49124000                       # number of UpgradeReq miss cycles
system.l2.UpgradeReq_miss_rate                      1                       # miss rate for UpgradeReq accesses
system.l2.UpgradeReq_misses                       723                       # number of UpgradeReq misses
system.l2.UpgradeReq_mshr_miss_latency       37694500                       # number of UpgradeReq MSHR miss cycles
system.l2.UpgradeReq_mshr_miss_rate                 1                       # mshr miss rate for UpgradeReq accesses
system.l2.UpgradeReq_mshr_misses                  723                       # number of UpgradeReq MSHR misses
system.l2.Writeback_accesses                     3599                       # number of Writeback accesses(hits+misses)
system.l2.Writeback_hits                         3599                       # number of Writeback hits
system.l2.avg_blocked_cycles::no_mshrs       no_value                       # average number of cycles each access was blocked
system.l2.avg_blocked_cycles::no_targets     no_value                       # average number of cycles each access was blocked
system.l2.avg_refs                           0.705513                       # Average number of references to valid blocks.
system.l2.blocked::no_mshrs                         0                       # number of cycles access was blocked
system.l2.blocked::no_targets                       0                       # number of cycles access was blocked
system.l2.blocked_cycles::no_mshrs                  0                       # number of cycles access was blocked
system.l2.blocked_cycles::no_targets                0                       # number of cycles access was blocked
system.l2.cache_copies                              0                       # number of cache copies performed
system.l2.demand_accesses                       87007                       # number of demand (read+write) accesses
system.l2.demand_avg_miss_latency        75177.759518                       # average overall miss latency
system.l2.demand_avg_mshr_miss_latency   59794.610778                       # average overall mshr miss latency
system.l2.demand_hits                           76054                       # number of demand (read+write) hits
system.l2.demand_miss_latency               823422000                       # number of demand (read+write) miss cycles
system.l2.demand_miss_rate                   0.125886                       # miss rate for demand accesses
system.l2.demand_misses                         10953                       # number of demand (read+write) misses
system.l2.demand_mshr_hits                         96                       # number of demand (read+write) MSHR hits
system.l2.demand_mshr_miss_latency          649070500                       # number of demand (read+write) MSHR miss cycles
system.l2.demand_mshr_miss_rate              0.124760                       # mshr miss rate for demand accesses
system.l2.demand_mshr_misses                    10855                       # number of demand (read+write) MSHR misses
system.l2.fast_writes                               0                       # number of fast writes performed
system.l2.mshr_cap_events                           0                       # number of times MSHR cap was activated
system.l2.no_allocate_misses                        0                       # Number of misses that were no-allocate
system.l2.occ_%::0                           0.850679                       # Average percentage of cache occupancy
system.l2.occ_%::1                           0.018575                       # Average percentage of cache occupancy
system.l2.occ_blocks::0                  13937.523087                       # Average occupied blocks per context
system.l2.occ_blocks::1                    304.335021                       # Average occupied blocks per context
system.l2.overall_accesses                      87007                       # number of overall (read+write) accesses
system.l2.overall_avg_miss_latency       75177.759518                       # average overall miss latency
system.l2.overall_avg_mshr_miss_latency  74405.640898                       # average overall mshr miss latency
system.l2.overall_avg_mshr_uncacheable_latency     no_value                       # average overall mshr uncacheable latency
system.l2.overall_hits                          76054                       # number of overall hits
system.l2.overall_miss_latency              823422000                       # number of overall miss cycles
system.l2.overall_miss_rate                  0.125886                       # miss rate for overall accesses
system.l2.overall_misses                        10953                       # number of overall misses
system.l2.overall_mshr_hits                        96                       # number of overall MSHR hits
system.l2.overall_mshr_miss_latency        8083875261                       # number of overall MSHR miss cycles
system.l2.overall_mshr_miss_rate             1.248704                       # mshr miss rate for overall accesses
system.l2.overall_mshr_misses                  108646                       # number of overall MSHR misses
system.l2.overall_mshr_uncacheable_latency            0                       # number of overall MSHR uncacheable cycles
system.l2.overall_mshr_uncacheable_misses            0                       # number of overall MSHR uncacheable misses
system.l2.prefetch_accuracy                  0.218803                       # ratio of good prefetches to total prefetches
system.l2.prefetch_hits                         21397                       # number of prefetched blocks that were accessed
system.l2.prefetcher.num_hwpf_already_in_prefetcher         2527                       # number of hwpf that were already in the prefetch queue
system.l2.prefetcher.num_hwpf_evicted               0                       # number of hwpf removed due to no buffer left
system.l2.prefetcher.num_hwpf_identified       101354                       # number of hwpf identified
system.l2.prefetcher.num_hwpf_issued            98528                       # number of hwpf issued
system.l2.prefetcher.num_hwpf_removed_MSHR_hit          299                       # number of hwpf removed because MSHR allocated
system.l2.prefetcher.num_hwpf_span_page             0                       # number of hwpf spanning a virtual page
system.l2.prefetcher.num_hwpf_squashed_from_miss            0                       # number of hwpf that got squashed due to a miss aborting calculation time
system.l2.replacements                          92407                       # number of replacements
system.l2.sampled_refs                         108402                       # Sample count of references to valid blocks.
system.l2.soft_prefetch_mshr_full                   0                       # number of mshr full events for SW prefetching instrutions
system.l2.tagsinuse                      14241.858108                       # Cycle average of tags in use
system.l2.total_refs                            76479                       # Total number of references to valid blocks.
system.l2.warmup_cycle                              0                       # Cycle when the warmup percentage was hit.
system.l2.writebacks                             2482                       # number of writebacks
system.switch_cpus.dtb.data_accesses          2972120                       # DTB accesses
system.switch_cpus.dtb.data_acv                     0                       # DTB access violations
system.switch_cpus.dtb.data_hits              2969257                       # DTB hits
system.switch_cpus.dtb.data_misses               2863                       # DTB misses
system.switch_cpus.dtb.fetch_accesses               0                       # ITB accesses
system.switch_cpus.dtb.fetch_acv                    0                       # ITB acv
system.switch_cpus.dtb.fetch_hits                   0                       # ITB hits
system.switch_cpus.dtb.fetch_misses                 0                       # ITB misses
system.switch_cpus.dtb.read_accesses          1546660                       # DTB read accesses
system.switch_cpus.dtb.read_acv                     0                       # DTB read access violations
system.switch_cpus.dtb.read_hits              1543848                       # DTB read hits
system.switch_cpus.dtb.read_misses               2812                       # DTB read misses
system.switch_cpus.dtb.write_accesses         1425460                       # DTB write accesses
system.switch_cpus.dtb.write_acv                    0                       # DTB write access violations
system.switch_cpus.dtb.write_hits             1425409                       # DTB write hits
system.switch_cpus.dtb.write_misses                51                       # DTB write misses
system.switch_cpus.idle_fraction                    1                       # Percentage of idle cycles
system.switch_cpus.itb.data_accesses                0                       # DTB accesses
system.switch_cpus.itb.data_acv                     0                       # DTB access violations
system.switch_cpus.itb.data_hits                    0                       # DTB hits
system.switch_cpus.itb.data_misses                  0                       # DTB misses
system.switch_cpus.itb.fetch_accesses        10002866                       # ITB accesses
system.switch_cpus.itb.fetch_acv                    0                       # ITB acv
system.switch_cpus.itb.fetch_hits            10002865                       # ITB hits
system.switch_cpus.itb.fetch_misses                 1                       # ITB misses
system.switch_cpus.itb.read_accesses                0                       # DTB read accesses
system.switch_cpus.itb.read_acv                     0                       # DTB read access violations
system.switch_cpus.itb.read_hits                    0                       # DTB read hits
system.switch_cpus.itb.read_misses                  0                       # DTB read misses
system.switch_cpus.itb.write_accesses               0                       # DTB write accesses
system.switch_cpus.itb.write_acv                    0                       # DTB write access violations
system.switch_cpus.itb.write_hits                   0                       # DTB write hits
system.switch_cpus.itb.write_misses                 0                       # DTB write misses
system.switch_cpus.not_idle_fraction                0                       # Percentage of non-idle cycles
system.switch_cpus.numCycles                 27451000                       # number of cpu cycles simulated
system.switch_cpus.num_insts                 10000001                       # Number of instructions executed
system.switch_cpus.num_refs                   2972120                       # Number of memory references
system.switch_cpus_1.BPredUnit.BTBCorrect            0                       # Number of correct BTB predictions (this stat may not work properly.
system.switch_cpus_1.BPredUnit.BTBHits        2023416                       # Number of BTB hits
system.switch_cpus_1.BPredUnit.BTBLookups      2085501                       # Number of BTB lookups
system.switch_cpus_1.BPredUnit.RASInCorrect            0                       # Number of incorrect RAS predictions.
system.switch_cpus_1.BPredUnit.condIncorrect       160905                       # Number of conditional branches incorrect
system.switch_cpus_1.BPredUnit.condPredicted      2169616                       # Number of conditional branches predicted
system.switch_cpus_1.BPredUnit.lookups        2326917                       # Number of BP lookups
system.switch_cpus_1.BPredUnit.usedRAS              0                       # Number of times the RAS was used to get a target.
system.switch_cpus_1.commit.COM:branches      1623752                       # Number of branches committed
system.switch_cpus_1.commit.COM:bw_lim_events        94319                       # number cycles where commit BW limit reached
system.switch_cpus_1.commit.COM:bw_limited            0                       # number of insts not committed due to BW limits
system.switch_cpus_1.commit.COM:committed_per_cycle::samples      7845017                       # Number of insts commited each cycle
system.switch_cpus_1.commit.COM:committed_per_cycle::mean     1.325492                       # Number of insts commited each cycle
system.switch_cpus_1.commit.COM:committed_per_cycle::stdev     1.775884                       # Number of insts commited each cycle
system.switch_cpus_1.commit.COM:committed_per_cycle::underflows            0      0.00%      0.00% # Number of insts commited each cycle
system.switch_cpus_1.commit.COM:committed_per_cycle::0      3272671     41.72%     41.72% # Number of insts commited each cycle
system.switch_cpus_1.commit.COM:committed_per_cycle::1      2838693     36.18%     77.90% # Number of insts commited each cycle
system.switch_cpus_1.commit.COM:committed_per_cycle::2       167995      2.14%     80.04% # Number of insts commited each cycle
system.switch_cpus_1.commit.COM:committed_per_cycle::3        72985      0.93%     80.97% # Number of insts commited each cycle
system.switch_cpus_1.commit.COM:committed_per_cycle::4       755128      9.63%     90.60% # Number of insts commited each cycle
system.switch_cpus_1.commit.COM:committed_per_cycle::5       633243      8.07%     98.67% # Number of insts commited each cycle
system.switch_cpus_1.commit.COM:committed_per_cycle::6         6290      0.08%     98.75% # Number of insts commited each cycle
system.switch_cpus_1.commit.COM:committed_per_cycle::7         3693      0.05%     98.80% # Number of insts commited each cycle
system.switch_cpus_1.commit.COM:committed_per_cycle::8        94319      1.20%    100.00% # Number of insts commited each cycle
system.switch_cpus_1.commit.COM:committed_per_cycle::overflows            0      0.00%    100.00% # Number of insts commited each cycle
system.switch_cpus_1.commit.COM:committed_per_cycle::min_value            0                       # Number of insts commited each cycle
system.switch_cpus_1.commit.COM:committed_per_cycle::max_value            8                       # Number of insts commited each cycle
system.switch_cpus_1.commit.COM:committed_per_cycle::total      7845017                       # Number of insts commited each cycle
system.switch_cpus_1.commit.COM:count        10398508                       # Number of instructions committed
system.switch_cpus_1.commit.COM:loads         1606582                       # Number of loads committed
system.switch_cpus_1.commit.COM:membars             0                       # Number of memory barriers committed
system.switch_cpus_1.commit.COM:refs          3004003                       # Number of memory references committed
system.switch_cpus_1.commit.COM:swp_count            0                       # Number of s/w prefetches committed
system.switch_cpus_1.commit.branchMispredicts       160900                       # The number of times a branch was mispredicted
system.switch_cpus_1.commit.commitCommittedInsts     10398508                       # The number of committed instructions
system.switch_cpus_1.commit.commitSquashedInsts      2929722                       # The number of squashed insts skipped by commit
system.switch_cpus_1.committedInsts          10000000                       # Number of Instructions Simulated
system.switch_cpus_1.committedInsts_total     10000000                       # Number of Instructions Simulated
system.switch_cpus_1.cpi                     0.846942                       # CPI: Cycles Per Instruction
system.switch_cpus_1.cpi_total               0.846942                       # CPI: Total CPI of All Threads
system.switch_cpus_1.decode.DECODE:BlockedCycles        89633                       # Number of cycles decode is blocked
system.switch_cpus_1.decode.DECODE:BranchMispred          202                       # Number of times decode detected a branch misprediction
system.switch_cpus_1.decode.DECODE:BranchResolved       153201                       # Number of times decode resolved a branch
system.switch_cpus_1.decode.DECODE:DecodedInsts     14535993                       # Number of instructions handled by decode
system.switch_cpus_1.decode.DECODE:IdleCycles      4494206                       # Number of cycles decode is idle
system.switch_cpus_1.decode.DECODE:RunCycles      3257969                       # Number of cycles decode is running
system.switch_cpus_1.decode.DECODE:SquashCycles       491723                       # Number of cycles decode is squashing
system.switch_cpus_1.decode.DECODE:SquashedInsts           16                       # Number of squashed instructions handled by decode
system.switch_cpus_1.decode.DECODE:UnblockCycles         3208                       # Number of cycles decode is unblocking
system.switch_cpus_1.dtb.data_accesses        3562636                       # DTB accesses
system.switch_cpus_1.dtb.data_acv                   0                       # DTB access violations
system.switch_cpus_1.dtb.data_hits            3555985                       # DTB hits
system.switch_cpus_1.dtb.data_misses             6651                       # DTB misses
system.switch_cpus_1.dtb.fetch_accesses             0                       # ITB accesses
system.switch_cpus_1.dtb.fetch_acv                  0                       # ITB acv
system.switch_cpus_1.dtb.fetch_hits                 0                       # ITB hits
system.switch_cpus_1.dtb.fetch_misses               0                       # ITB misses
system.switch_cpus_1.dtb.read_accesses        1922018                       # DTB read accesses
system.switch_cpus_1.dtb.read_acv                   0                       # DTB read access violations
system.switch_cpus_1.dtb.read_hits            1915616                       # DTB read hits
system.switch_cpus_1.dtb.read_misses             6402                       # DTB read misses
system.switch_cpus_1.dtb.write_accesses       1640618                       # DTB write accesses
system.switch_cpus_1.dtb.write_acv                  0                       # DTB write access violations
system.switch_cpus_1.dtb.write_hits           1640369                       # DTB write hits
system.switch_cpus_1.dtb.write_misses             249                       # DTB write misses
system.switch_cpus_1.fetch.Branches           2326917                       # Number of branches that fetch encountered
system.switch_cpus_1.fetch.CacheLines         2245134                       # Number of cache lines fetched
system.switch_cpus_1.fetch.Cycles             5546291                       # Number of cycles fetch has run and was not squashing or blocked
system.switch_cpus_1.fetch.IcacheSquashes        43153                       # Number of outstanding Icache misses that were squashed
system.switch_cpus_1.fetch.Insts             14776037                       # Number of instructions fetch has processed
system.switch_cpus_1.fetch.SquashCycles        176624                       # Number of cycles fetch has spent squashing
system.switch_cpus_1.fetch.branchRate        0.274743                       # Number of branch fetches per cycle
system.switch_cpus_1.fetch.icacheStallCycles      2245134                       # Number of cycles fetch is stalled on an Icache miss
system.switch_cpus_1.fetch.predictedBranches      2023416                       # Number of branches that fetch has predicted taken
system.switch_cpus_1.fetch.rate              1.744633                       # Number of inst fetches per cycle
system.switch_cpus_1.fetch.rateDist::samples      8336740                       # Number of instructions fetched each cycle (Total)
system.switch_cpus_1.fetch.rateDist::mean     1.772400                       # Number of instructions fetched each cycle (Total)
system.switch_cpus_1.fetch.rateDist::stdev     2.710924                       # Number of instructions fetched each cycle (Total)
system.switch_cpus_1.fetch.rateDist::underflows            0      0.00%      0.00% # Number of instructions fetched each cycle (Total)
system.switch_cpus_1.fetch.rateDist::0        5035583     60.40%     60.40% # Number of instructions fetched each cycle (Total)
system.switch_cpus_1.fetch.rateDist::1         794905      9.53%     69.94% # Number of instructions fetched each cycle (Total)
system.switch_cpus_1.fetch.rateDist::2         174185      2.09%     72.03% # Number of instructions fetched each cycle (Total)
system.switch_cpus_1.fetch.rateDist::3          53965      0.65%     72.67% # Number of instructions fetched each cycle (Total)
system.switch_cpus_1.fetch.rateDist::4         608691      7.30%     79.98% # Number of instructions fetched each cycle (Total)
system.switch_cpus_1.fetch.rateDist::5         603280      7.24%     87.21% # Number of instructions fetched each cycle (Total)
system.switch_cpus_1.fetch.rateDist::6          33019      0.40%     87.61% # Number of instructions fetched each cycle (Total)
system.switch_cpus_1.fetch.rateDist::7         443307      5.32%     92.93% # Number of instructions fetched each cycle (Total)
system.switch_cpus_1.fetch.rateDist::8         589805      7.07%    100.00% # Number of instructions fetched each cycle (Total)
system.switch_cpus_1.fetch.rateDist::overflows            0      0.00%    100.00% # Number of instructions fetched each cycle (Total)
system.switch_cpus_1.fetch.rateDist::min_value            0                       # Number of instructions fetched each cycle (Total)
system.switch_cpus_1.fetch.rateDist::max_value            8                       # Number of instructions fetched each cycle (Total)
system.switch_cpus_1.fetch.rateDist::total      8336740                       # Number of instructions fetched each cycle (Total)
system.switch_cpus_1.idleCycles                132684                       # Total number of cycles that the CPU has spent unscheduled due to idling
system.switch_cpus_1.iew.EXEC:branches        1998047                       # Number of branches executed
system.switch_cpus_1.iew.EXEC:nop              877669                       # number of nop insts executed
system.switch_cpus_1.iew.EXEC:rate           1.411199                       # Inst execution rate
system.switch_cpus_1.iew.EXEC:refs            3562636                       # number of memory reference insts executed
system.switch_cpus_1.iew.EXEC:stores          1640618                       # Number of stores executed
system.switch_cpus_1.iew.EXEC:swp                   0                       # number of swp insts executed
system.switch_cpus_1.iew.WB:consumers         8773638                       # num instructions consuming a value
system.switch_cpus_1.iew.WB:count            11876467                       # cumulative count of insts written-back
system.switch_cpus_1.iew.WB:fanout           0.764875                       # average fanout of values written-back
system.switch_cpus_1.iew.WB:penalized               0                       # number of instrctions required to write to 'other' IQ
system.switch_cpus_1.iew.WB:penalized_rate            0                       # fraction of instructions written-back that wrote to 'other' IQ
system.switch_cpus_1.iew.WB:producers         6710740                       # num instructions producing a value
system.switch_cpus_1.iew.WB:rate             1.402276                       # insts written-back per cycle
system.switch_cpus_1.iew.WB:sent             11885645                       # cumulative count of insts sent to commit
system.switch_cpus_1.iew.branchMispredicts       174287                       # Number of branch mispredicts detected at execute
system.switch_cpus_1.iew.iewBlockCycles          5527                       # Number of cycles IEW is blocking
system.switch_cpus_1.iew.iewDispLoadInsts      2009814                       # Number of dispatched load instructions
system.switch_cpus_1.iew.iewDispNonSpecInsts            0                       # Number of dispatched non-speculative instructions
system.switch_cpus_1.iew.iewDispSquashedInsts       393541                       # Number of squashed instructions skipped by dispatch
system.switch_cpus_1.iew.iewDispStoreInsts      1716391                       # Number of dispatched store instructions
system.switch_cpus_1.iew.iewDispatchedInsts     13422264                       # Number of instructions dispatched to IQ
system.switch_cpus_1.iew.iewExecLoadInsts      1922018                       # Number of load instructions executed
system.switch_cpus_1.iew.iewExecSquashedInsts       152999                       # Number of squashed instructions skipped in execute
system.switch_cpus_1.iew.iewExecutedInsts     11952042                       # Number of executed instructions
system.switch_cpus_1.iew.iewIQFullEvents           74                       # Number of times the IQ has become full, causing a stall
system.switch_cpus_1.iew.iewIdleCycles              0                       # Number of cycles IEW is idle
system.switch_cpus_1.iew.iewLSQFullEvents            1                       # Number of times the LSQ has become full, causing a stall
system.switch_cpus_1.iew.iewSquashCycles       491723                       # Number of cycles IEW is squashing
system.switch_cpus_1.iew.iewUnblockCycles          144                       # Number of cycles IEW is unblocking
system.switch_cpus_1.iew.lsq.thread.0.blockedLoads            0                       # Number of blocked loads due to partial load-store forwarding
system.switch_cpus_1.iew.lsq.thread.0.cacheBlocked          388                       # Number of times an access to memory failed due to the cache being blocked
system.switch_cpus_1.iew.lsq.thread.0.forwLoads       126153                       # Number of loads that had data forwarded from stores
system.switch_cpus_1.iew.lsq.thread.0.ignoredResponses        10725                       # Number of memory responses ignored because the instruction is squashed
system.switch_cpus_1.iew.lsq.thread.0.invAddrLoads            0                       # Number of loads ignored due to an invalid address
system.switch_cpus_1.iew.lsq.thread.0.invAddrSwpfs            0                       # Number of software prefetches ignored due to an invalid address
system.switch_cpus_1.iew.lsq.thread.0.memOrderViolation        12932                       # Number of memory ordering violations
system.switch_cpus_1.iew.lsq.thread.0.rescheduledLoads            0                       # Number of loads that were rescheduled
system.switch_cpus_1.iew.lsq.thread.0.squashedLoads       403231                       # Number of loads squashed
system.switch_cpus_1.iew.lsq.thread.0.squashedStores       318969                       # Number of stores squashed
system.switch_cpus_1.iew.memOrderViolationEvents        12932                       # Number of memory order violations
system.switch_cpus_1.iew.predictedNotTakenIncorrect        29121                       # Number of branches that were predicted not taken incorrectly
system.switch_cpus_1.iew.predictedTakenIncorrect       145166                       # Number of branches that were predicted taken incorrectly
system.switch_cpus_1.ipc                     1.180718                       # IPC: Instructions Per Cycle
system.switch_cpus_1.ipc_total               1.180718                       # IPC: Total IPC of All Threads
system.switch_cpus_1.iq.ISSUE:FU_type_0::No_OpClass            0      0.00%      0.00% # Type of FU issued
system.switch_cpus_1.iq.ISSUE:FU_type_0::IntAlu      8504304     70.25%     70.25% # Type of FU issued
system.switch_cpus_1.iq.ISSUE:FU_type_0::IntMult            0      0.00%     70.25% # Type of FU issued
system.switch_cpus_1.iq.ISSUE:FU_type_0::IntDiv            0      0.00%     70.25% # Type of FU issued
system.switch_cpus_1.iq.ISSUE:FU_type_0::FloatAdd            0      0.00%     70.25% # Type of FU issued
system.switch_cpus_1.iq.ISSUE:FU_type_0::FloatCmp            0      0.00%     70.25% # Type of FU issued
system.switch_cpus_1.iq.ISSUE:FU_type_0::FloatCvt            0      0.00%     70.25% # Type of FU issued
system.switch_cpus_1.iq.ISSUE:FU_type_0::FloatMult            0      0.00%     70.25% # Type of FU issued
system.switch_cpus_1.iq.ISSUE:FU_type_0::FloatDiv            0      0.00%     70.25% # Type of FU issued
system.switch_cpus_1.iq.ISSUE:FU_type_0::FloatSqrt            0      0.00%     70.25% # Type of FU issued
system.switch_cpus_1.iq.ISSUE:FU_type_0::MemRead      1937089     16.00%     86.26% # Type of FU issued
system.switch_cpus_1.iq.ISSUE:FU_type_0::MemWrite      1663649     13.74%    100.00% # Type of FU issued
system.switch_cpus_1.iq.ISSUE:FU_type_0::IprAccess            0      0.00%    100.00% # Type of FU issued
system.switch_cpus_1.iq.ISSUE:FU_type_0::InstPrefetch            0      0.00%    100.00% # Type of FU issued
system.switch_cpus_1.iq.ISSUE:FU_type_0::total     12105042                       # Type of FU issued
system.switch_cpus_1.iq.ISSUE:fu_busy_cnt         6549                       # FU busy when requested
system.switch_cpus_1.iq.ISSUE:fu_busy_rate     0.000541                       # FU busy rate (busy events/executed inst)
system.switch_cpus_1.iq.ISSUE:fu_full::No_OpClass            0      0.00%      0.00% # attempts to use FU when none available
system.switch_cpus_1.iq.ISSUE:fu_full::IntAlu         6547     99.97%     99.97% # attempts to use FU when none available
system.switch_cpus_1.iq.ISSUE:fu_full::IntMult            0      0.00%     99.97% # attempts to use FU when none available
system.switch_cpus_1.iq.ISSUE:fu_full::IntDiv            0      0.00%     99.97% # attempts to use FU when none available
system.switch_cpus_1.iq.ISSUE:fu_full::FloatAdd            0      0.00%     99.97% # attempts to use FU when none available
system.switch_cpus_1.iq.ISSUE:fu_full::FloatCmp            0      0.00%     99.97% # attempts to use FU when none available
system.switch_cpus_1.iq.ISSUE:fu_full::FloatCvt            0      0.00%     99.97% # attempts to use FU when none available
system.switch_cpus_1.iq.ISSUE:fu_full::FloatMult            0      0.00%     99.97% # attempts to use FU when none available
system.switch_cpus_1.iq.ISSUE:fu_full::FloatDiv            0      0.00%     99.97% # attempts to use FU when none available
system.switch_cpus_1.iq.ISSUE:fu_full::FloatSqrt            0      0.00%     99.97% # attempts to use FU when none available
system.switch_cpus_1.iq.ISSUE:fu_full::MemRead            2      0.03%    100.00% # attempts to use FU when none available
system.switch_cpus_1.iq.ISSUE:fu_full::MemWrite            0      0.00%    100.00% # attempts to use FU when none available
system.switch_cpus_1.iq.ISSUE:fu_full::IprAccess            0      0.00%    100.00% # attempts to use FU when none available
system.switch_cpus_1.iq.ISSUE:fu_full::InstPrefetch            0      0.00%    100.00% # attempts to use FU when none available
system.switch_cpus_1.iq.ISSUE:issued_per_cycle::samples      8336740                       # Number of insts issued each cycle
system.switch_cpus_1.iq.ISSUE:issued_per_cycle::mean     1.452011                       # Number of insts issued each cycle
system.switch_cpus_1.iq.ISSUE:issued_per_cycle::stdev     1.315026                       # Number of insts issued each cycle
system.switch_cpus_1.iq.ISSUE:issued_per_cycle::underflows            0      0.00%      0.00% # Number of insts issued each cycle
system.switch_cpus_1.iq.ISSUE:issued_per_cycle::0      2234489     26.80%     26.80% # Number of insts issued each cycle
system.switch_cpus_1.iq.ISSUE:issued_per_cycle::1      2552947     30.62%     57.43% # Number of insts issued each cycle
system.switch_cpus_1.iq.ISSUE:issued_per_cycle::2      2331825     27.97%     85.40% # Number of insts issued each cycle
system.switch_cpus_1.iq.ISSUE:issued_per_cycle::3       189073      2.27%     87.66% # Number of insts issued each cycle
system.switch_cpus_1.iq.ISSUE:issued_per_cycle::4       859236     10.31%     97.97% # Number of insts issued each cycle
system.switch_cpus_1.iq.ISSUE:issued_per_cycle::5       136457      1.64%     99.61% # Number of insts issued each cycle
system.switch_cpus_1.iq.ISSUE:issued_per_cycle::6        27099      0.33%     99.93% # Number of insts issued each cycle
system.switch_cpus_1.iq.ISSUE:issued_per_cycle::7         5509      0.07%    100.00% # Number of insts issued each cycle
system.switch_cpus_1.iq.ISSUE:issued_per_cycle::8          105      0.00%    100.00% # Number of insts issued each cycle
system.switch_cpus_1.iq.ISSUE:issued_per_cycle::overflows            0      0.00%    100.00% # Number of insts issued each cycle
system.switch_cpus_1.iq.ISSUE:issued_per_cycle::min_value            0                       # Number of insts issued each cycle
system.switch_cpus_1.iq.ISSUE:issued_per_cycle::max_value            8                       # Number of insts issued each cycle
system.switch_cpus_1.iq.ISSUE:issued_per_cycle::total      8336740                       # Number of insts issued each cycle
system.switch_cpus_1.iq.ISSUE:rate           1.429264                       # Inst issue rate
system.switch_cpus_1.iq.iqInstsAdded         12544595                       # Number of instructions added to the IQ (excludes non-spec)
system.switch_cpus_1.iq.iqInstsIssued        12105042                       # Number of instructions issued
system.switch_cpus_1.iq.iqSquashedInstsExamined      2254847                       # Number of squashed instructions iterated over during squash; mainly for profiling
system.switch_cpus_1.iq.iqSquashedInstsIssued         2171                       # Number of squashed instructions issued
system.switch_cpus_1.iq.iqSquashedOperandsExamined       810719                       # Number of squashed operands that are examined and possibly removed from graph
system.switch_cpus_1.itb.data_accesses              0                       # DTB accesses
system.switch_cpus_1.itb.data_acv                   0                       # DTB access violations
system.switch_cpus_1.itb.data_hits                  0                       # DTB hits
system.switch_cpus_1.itb.data_misses                0                       # DTB misses
system.switch_cpus_1.itb.fetch_accesses       2245135                       # ITB accesses
system.switch_cpus_1.itb.fetch_acv                  0                       # ITB acv
system.switch_cpus_1.itb.fetch_hits           2245134                       # ITB hits
system.switch_cpus_1.itb.fetch_misses               1                       # ITB misses
system.switch_cpus_1.itb.read_accesses              0                       # DTB read accesses
system.switch_cpus_1.itb.read_acv                   0                       # DTB read access violations
system.switch_cpus_1.itb.read_hits                  0                       # DTB read hits
system.switch_cpus_1.itb.read_misses                0                       # DTB read misses
system.switch_cpus_1.itb.write_accesses             0                       # DTB write accesses
system.switch_cpus_1.itb.write_acv                  0                       # DTB write access violations
system.switch_cpus_1.itb.write_hits                 0                       # DTB write hits
system.switch_cpus_1.itb.write_misses               0                       # DTB write misses
system.switch_cpus_1.memDep0.conflictingLoads       618756                       # Number of conflicting loads.
system.switch_cpus_1.memDep0.conflictingStores       587010                       # Number of conflicting stores.
system.switch_cpus_1.memDep0.insertedLoads      2009814                       # Number of loads inserted to the mem dependence unit.
system.switch_cpus_1.memDep0.insertedStores      1716391                       # Number of stores inserted to the mem dependence unit.
system.switch_cpus_1.numCycles                8469424                       # number of cpu cycles simulated
system.switch_cpus_1.rename.RENAME:BlockCycles        68549                       # Number of cycles rename is blocking
system.switch_cpus_1.rename.RENAME:CommittedMaps      6978824                       # Number of HB maps that are committed
system.switch_cpus_1.rename.RENAME:IQFullEvents          306                       # Number of times rename has blocked due to IQ full
system.switch_cpus_1.rename.RENAME:IdleCycles      4547172                       # Number of cycles rename is idle
system.switch_cpus_1.rename.RENAME:LSQFullEvents        19326                       # Number of times rename has blocked due to LSQ full
system.switch_cpus_1.rename.RENAME:ROBFullEvents         3459                       # Number of times rename has blocked due to ROB full
system.switch_cpus_1.rename.RENAME:RenameLookups     19028992                       # Number of register rename lookups that rename has made
system.switch_cpus_1.rename.RENAME:RenamedInsts     14323117                       # Number of instructions processed by rename
system.switch_cpus_1.rename.RENAME:RenamedOperands      9352757                       # Number of destination operands rename has renamed
system.switch_cpus_1.rename.RENAME:RunCycles      3207289                       # Number of cycles rename is running
system.switch_cpus_1.rename.RENAME:SquashCycles       491723                       # Number of cycles rename is squashing
system.switch_cpus_1.rename.RENAME:UnblockCycles        22006                       # Number of cycles rename is unblocking
system.switch_cpus_1.rename.RENAME:UndoneMaps      2373920                       # Number of HB maps that are undone due to squashing
system.switch_cpus_1.rename.RENAME:serializeStallCycles            0                       # count of cycles rename stalled for serializing inst
system.switch_cpus_1.rename.RENAME:serializingInsts            0                       # count of serializing insts renamed
system.switch_cpus_1.rename.RENAME:skidInsts        43959                       # count of insts added to the skid buffer
system.switch_cpus_1.rename.RENAME:tempSerializingInsts            0                       # count of temporary serializing insts renamed
system.switch_cpus_1.timesIdled                  1790                       # Number of times that the entire CPU went into an idle state and unscheduled itself

---------- End Simulation Statistics   ----------
