
---------- Begin Simulation Statistics ----------
host_inst_rate                                 264625                       # Simulator instruction rate (inst/s)
host_mem_usage                                 397168                       # Number of bytes of host memory used
host_seconds                                    75.58                       # Real time elapsed on the host
host_tick_rate                              258459641                       # Simulator tick rate (ticks/s)
sim_freq                                 1000000000000                       # Frequency of simulated ticks
sim_insts                                    20000006                       # Number of instructions simulated
sim_seconds                                  0.019534                       # Number of seconds simulated
sim_ticks                                 19534115000                       # Number of ticks simulated
system.cpu.dcache.ReadReq_accesses            2902218                       # number of ReadReq accesses(hits+misses)
system.cpu.dcache.ReadReq_avg_miss_latency 21339.798248                       # average ReadReq miss latency
system.cpu.dcache.ReadReq_avg_mshr_miss_latency 11081.874593                       # average ReadReq mshr miss latency
system.cpu.dcache.ReadReq_hits                2756792                       # number of ReadReq hits
system.cpu.dcache.ReadReq_miss_latency     3103361500                       # number of ReadReq miss cycles
system.cpu.dcache.ReadReq_miss_rate          0.050109                       # miss rate for ReadReq accesses
system.cpu.dcache.ReadReq_misses               145426                       # number of ReadReq misses
system.cpu.dcache.ReadReq_mshr_hits             93212                       # number of ReadReq MSHR hits
system.cpu.dcache.ReadReq_mshr_miss_latency    578629000                       # number of ReadReq MSHR miss cycles
system.cpu.dcache.ReadReq_mshr_miss_rate     0.017991                       # mshr miss rate for ReadReq accesses
system.cpu.dcache.ReadReq_mshr_misses           52214                       # number of ReadReq MSHR misses
system.cpu.dcache.WriteReq_accesses           1252170                       # number of WriteReq accesses(hits+misses)
system.cpu.dcache.WriteReq_avg_miss_latency 48716.090063                       # average WriteReq miss latency
system.cpu.dcache.WriteReq_avg_mshr_miss_latency 44572.699974                       # average WriteReq mshr miss latency
system.cpu.dcache.WriteReq_hits               1068566                       # number of WriteReq hits
system.cpu.dcache.WriteReq_miss_latency    8944469000                       # number of WriteReq miss cycles
system.cpu.dcache.WriteReq_miss_rate         0.146629                       # miss rate for WriteReq accesses
system.cpu.dcache.WriteReq_misses              183604                       # number of WriteReq misses
system.cpu.dcache.WriteReq_mshr_hits           105344                       # number of WriteReq MSHR hits
system.cpu.dcache.WriteReq_mshr_miss_latency   3488259500                       # number of WriteReq MSHR miss cycles
system.cpu.dcache.WriteReq_mshr_miss_rate     0.062500                       # mshr miss rate for WriteReq accesses
system.cpu.dcache.WriteReq_mshr_misses          78260                       # number of WriteReq MSHR misses
system.cpu.dcache.avg_blocked_cycles::no_mshrs     no_value                       # average number of cycles each access was blocked
system.cpu.dcache.avg_blocked_cycles::no_targets 41062.498226                       # average number of cycles each access was blocked
system.cpu.dcache.avg_refs                  50.865543                       # Average number of references to valid blocks.
system.cpu.dcache.blocked::no_mshrs                 0                       # number of cycles access was blocked
system.cpu.dcache.blocked::no_targets           35233                       # number of cycles access was blocked
system.cpu.dcache.blocked_cycles::no_mshrs            0                       # number of cycles access was blocked
system.cpu.dcache.blocked_cycles::no_targets   1446755000                       # number of cycles access was blocked
system.cpu.dcache.cache_copies                      0                       # number of cache copies performed
system.cpu.dcache.demand_accesses             4154388                       # number of demand (read+write) accesses
system.cpu.dcache.demand_avg_miss_latency 36616.206729                       # average overall miss latency
system.cpu.dcache.demand_avg_mshr_miss_latency 31170.106688                       # average overall mshr miss latency
system.cpu.dcache.demand_hits                 3825358                       # number of demand (read+write) hits
system.cpu.dcache.demand_miss_latency     12047830500                       # number of demand (read+write) miss cycles
system.cpu.dcache.demand_miss_rate           0.079201                       # miss rate for demand accesses
system.cpu.dcache.demand_misses                329030                       # number of demand (read+write) misses
system.cpu.dcache.demand_mshr_hits             198556                       # number of demand (read+write) MSHR hits
system.cpu.dcache.demand_mshr_miss_latency   4066888500                       # number of demand (read+write) MSHR miss cycles
system.cpu.dcache.demand_mshr_miss_rate      0.031406                       # mshr miss rate for demand accesses
system.cpu.dcache.demand_mshr_misses           130474                       # number of demand (read+write) MSHR misses
system.cpu.dcache.fast_writes                       0                       # number of fast writes performed
system.cpu.dcache.mshr_cap_events                   0                       # number of times MSHR cap was activated
system.cpu.dcache.no_allocate_misses                0                       # Number of misses that were no-allocate
system.cpu.dcache.occ_%::0                   0.990407                       # Average percentage of cache occupancy
system.cpu.dcache.occ_blocks::0           1014.176931                       # Average occupied blocks per context
system.cpu.dcache.overall_accesses            4154388                       # number of overall (read+write) accesses
system.cpu.dcache.overall_avg_miss_latency 36616.206729                       # average overall miss latency
system.cpu.dcache.overall_avg_mshr_miss_latency 31170.106688                       # average overall mshr miss latency
system.cpu.dcache.overall_avg_mshr_uncacheable_latency     no_value                       # average overall mshr uncacheable latency
system.cpu.dcache.overall_hits                3825358                       # number of overall hits
system.cpu.dcache.overall_miss_latency    12047830500                       # number of overall miss cycles
system.cpu.dcache.overall_miss_rate          0.079201                       # miss rate for overall accesses
system.cpu.dcache.overall_misses               329030                       # number of overall misses
system.cpu.dcache.overall_mshr_hits            198556                       # number of overall MSHR hits
system.cpu.dcache.overall_mshr_miss_latency   4066888500                       # number of overall MSHR miss cycles
system.cpu.dcache.overall_mshr_miss_rate     0.031406                       # mshr miss rate for overall accesses
system.cpu.dcache.overall_mshr_misses          130474                       # number of overall MSHR misses
system.cpu.dcache.overall_mshr_uncacheable_latency            0                       # number of overall MSHR uncacheable cycles
system.cpu.dcache.overall_mshr_uncacheable_misses            0                       # number of overall MSHR uncacheable misses
system.cpu.dcache.prefetch_accuracy          no_value                       # ratio of good prefetches to total prefetches
system.cpu.dcache.prefetch_hits                     0                       # number of prefetched blocks that were accessed
system.cpu.dcache.replacements                  77276                       # number of replacements
system.cpu.dcache.sampled_refs                  78300                       # Sample count of references to valid blocks.
system.cpu.dcache.soft_prefetch_mshr_full            0                       # number of mshr full events for SW prefetching instrutions
system.cpu.dcache.tagsinuse               1014.176931                       # Cycle average of tags in use
system.cpu.dcache.total_refs                  3982772                       # Total number of references to valid blocks.
system.cpu.dcache.warmup_cycle           500382451000                       # Cycle when the warmup percentage was hit.
system.cpu.dcache.writebacks                    77244                       # number of writebacks
system.cpu.dtb.data_accesses                        0                       # DTB accesses
system.cpu.dtb.data_acv                             0                       # DTB access violations
system.cpu.dtb.data_hits                            0                       # DTB hits
system.cpu.dtb.data_misses                          0                       # DTB misses
system.cpu.dtb.fetch_accesses                       0                       # ITB accesses
system.cpu.dtb.fetch_acv                            0                       # ITB acv
system.cpu.dtb.fetch_hits                           0                       # ITB hits
system.cpu.dtb.fetch_misses                         0                       # ITB misses
system.cpu.dtb.read_accesses                        0                       # DTB read accesses
system.cpu.dtb.read_acv                             0                       # DTB read access violations
system.cpu.dtb.read_hits                            0                       # DTB read hits
system.cpu.dtb.read_misses                          0                       # DTB read misses
system.cpu.dtb.write_accesses                       0                       # DTB write accesses
system.cpu.dtb.write_acv                            0                       # DTB write access violations
system.cpu.dtb.write_hits                           0                       # DTB write hits
system.cpu.dtb.write_misses                         0                       # DTB write misses
system.cpu.icache.ReadReq_accesses           12541048                       # number of ReadReq accesses(hits+misses)
system.cpu.icache.ReadReq_avg_miss_latency        62700                       # average ReadReq miss latency
system.cpu.icache.ReadReq_avg_mshr_miss_latency 60866.666667                       # average ReadReq mshr miss latency
system.cpu.icache.ReadReq_hits               12540998                       # number of ReadReq hits
system.cpu.icache.ReadReq_miss_latency        3135000                       # number of ReadReq miss cycles
system.cpu.icache.ReadReq_miss_rate          0.000004                       # miss rate for ReadReq accesses
system.cpu.icache.ReadReq_misses                   50                       # number of ReadReq misses
system.cpu.icache.ReadReq_mshr_hits                 4                       # number of ReadReq MSHR hits
system.cpu.icache.ReadReq_mshr_miss_latency      2739000                       # number of ReadReq MSHR miss cycles
system.cpu.icache.ReadReq_mshr_miss_rate     0.000004                       # mshr miss rate for ReadReq accesses
system.cpu.icache.ReadReq_mshr_misses              45                       # number of ReadReq MSHR misses
system.cpu.icache.avg_blocked_cycles::no_mshrs     no_value                       # average number of cycles each access was blocked
system.cpu.icache.avg_blocked_cycles::no_targets     no_value                       # average number of cycles each access was blocked
system.cpu.icache.avg_refs               272630.391304                       # Average number of references to valid blocks.
system.cpu.icache.blocked::no_mshrs                 0                       # number of cycles access was blocked
system.cpu.icache.blocked::no_targets               0                       # number of cycles access was blocked
system.cpu.icache.blocked_cycles::no_mshrs            0                       # number of cycles access was blocked
system.cpu.icache.blocked_cycles::no_targets            0                       # number of cycles access was blocked
system.cpu.icache.cache_copies                      0                       # number of cache copies performed
system.cpu.icache.demand_accesses            12541048                       # number of demand (read+write) accesses
system.cpu.icache.demand_avg_miss_latency        62700                       # average overall miss latency
system.cpu.icache.demand_avg_mshr_miss_latency 60866.666667                       # average overall mshr miss latency
system.cpu.icache.demand_hits                12540998                       # number of demand (read+write) hits
system.cpu.icache.demand_miss_latency         3135000                       # number of demand (read+write) miss cycles
system.cpu.icache.demand_miss_rate           0.000004                       # miss rate for demand accesses
system.cpu.icache.demand_misses                    50                       # number of demand (read+write) misses
system.cpu.icache.demand_mshr_hits                  4                       # number of demand (read+write) MSHR hits
system.cpu.icache.demand_mshr_miss_latency      2739000                       # number of demand (read+write) MSHR miss cycles
system.cpu.icache.demand_mshr_miss_rate      0.000004                       # mshr miss rate for demand accesses
system.cpu.icache.demand_mshr_misses               45                       # number of demand (read+write) MSHR misses
system.cpu.icache.fast_writes                       0                       # number of fast writes performed
system.cpu.icache.mshr_cap_events                   0                       # number of times MSHR cap was activated
system.cpu.icache.no_allocate_misses                0                       # Number of misses that were no-allocate
system.cpu.icache.occ_%::0                   0.078823                       # Average percentage of cache occupancy
system.cpu.icache.occ_blocks::0             40.357615                       # Average occupied blocks per context
system.cpu.icache.overall_accesses           12541048                       # number of overall (read+write) accesses
system.cpu.icache.overall_avg_miss_latency        62700                       # average overall miss latency
system.cpu.icache.overall_avg_mshr_miss_latency 60866.666667                       # average overall mshr miss latency
system.cpu.icache.overall_avg_mshr_uncacheable_latency     no_value                       # average overall mshr uncacheable latency
system.cpu.icache.overall_hits               12540998                       # number of overall hits
system.cpu.icache.overall_miss_latency        3135000                       # number of overall miss cycles
system.cpu.icache.overall_miss_rate          0.000004                       # miss rate for overall accesses
system.cpu.icache.overall_misses                   50                       # number of overall misses
system.cpu.icache.overall_mshr_hits                 4                       # number of overall MSHR hits
system.cpu.icache.overall_mshr_miss_latency      2739000                       # number of overall MSHR miss cycles
system.cpu.icache.overall_mshr_miss_rate     0.000004                       # mshr miss rate for overall accesses
system.cpu.icache.overall_mshr_misses              45                       # number of overall MSHR misses
system.cpu.icache.overall_mshr_uncacheable_latency            0                       # number of overall MSHR uncacheable cycles
system.cpu.icache.overall_mshr_uncacheable_misses            0                       # number of overall MSHR uncacheable misses
system.cpu.icache.prefetch_accuracy          no_value                       # ratio of good prefetches to total prefetches
system.cpu.icache.prefetch_hits                     0                       # number of prefetched blocks that were accessed
system.cpu.icache.replacements                      0                       # number of replacements
system.cpu.icache.sampled_refs                     46                       # Sample count of references to valid blocks.
system.cpu.icache.soft_prefetch_mshr_full            0                       # number of mshr full events for SW prefetching instrutions
system.cpu.icache.tagsinuse                 40.357615                       # Cycle average of tags in use
system.cpu.icache.total_refs                 12540998                       # Total number of references to valid blocks.
system.cpu.icache.warmup_cycle                      0                       # Cycle when the warmup percentage was hit.
system.cpu.icache.writebacks                        0                       # number of writebacks
system.cpu.idle_fraction                            0                       # Percentage of idle cycles
system.cpu.itb.data_accesses                        0                       # DTB accesses
system.cpu.itb.data_acv                             0                       # DTB access violations
system.cpu.itb.data_hits                            0                       # DTB hits
system.cpu.itb.data_misses                          0                       # DTB misses
system.cpu.itb.fetch_accesses                       2                       # ITB accesses
system.cpu.itb.fetch_acv                            0                       # ITB acv
system.cpu.itb.fetch_hits                           2                       # ITB hits
system.cpu.itb.fetch_misses                         0                       # ITB misses
system.cpu.itb.read_accesses                        0                       # DTB read accesses
system.cpu.itb.read_acv                             0                       # DTB read access violations
system.cpu.itb.read_hits                            0                       # DTB read hits
system.cpu.itb.read_misses                          0                       # DTB read misses
system.cpu.itb.write_accesses                       0                       # DTB write accesses
system.cpu.itb.write_acv                            0                       # DTB write access violations
system.cpu.itb.write_hits                           0                       # DTB write hits
system.cpu.itb.write_misses                         0                       # DTB write misses
system.cpu.not_idle_fraction                        1                       # Percentage of non-idle cycles
system.cpu.numCycles                                2                       # number of cpu cycles simulated
system.cpu.num_insts                                2                       # Number of instructions executed
system.cpu.num_refs                                 0                       # Number of memory references
system.cpu.workload.PROG:num_syscalls               0                       # Number of system calls
system.l2.HardPFReq_avg_mshr_miss_latency 34416.844208                       # average HardPFReq mshr miss latency
system.l2.HardPFReq_mshr_miss_latency      2701137184                       # number of HardPFReq MSHR miss cycles
system.l2.HardPFReq_mshr_miss_rate                inf                       # mshr miss rate for HardPFReq accesses
system.l2.HardPFReq_mshr_misses                 78483                       # number of HardPFReq MSHR misses
system.l2.ReadExReq_accesses                    26087                       # number of ReadExReq accesses(hits+misses)
system.l2.ReadExReq_avg_miss_latency            55500                       # average ReadExReq miss latency
system.l2.ReadExReq_avg_mshr_miss_latency        40000                       # average ReadExReq mshr miss latency
system.l2.ReadExReq_hits                        26084                       # number of ReadExReq hits
system.l2.ReadExReq_miss_latency               166500                       # number of ReadExReq miss cycles
system.l2.ReadExReq_miss_rate                0.000115                       # miss rate for ReadExReq accesses
system.l2.ReadExReq_misses                          3                       # number of ReadExReq misses
system.l2.ReadExReq_mshr_miss_latency          120000                       # number of ReadExReq MSHR miss cycles
system.l2.ReadExReq_mshr_miss_rate           0.000115                       # mshr miss rate for ReadExReq accesses
system.l2.ReadExReq_mshr_misses                     3                       # number of ReadExReq MSHR misses
system.l2.ReadReq_accesses                      52259                       # number of ReadReq accesses(hits+misses)
system.l2.ReadReq_avg_miss_latency       58015.873016                       # average ReadReq miss latency
system.l2.ReadReq_avg_mshr_miss_latency  43112.903226                       # average ReadReq mshr miss latency
system.l2.ReadReq_hits                          52196                       # number of ReadReq hits
system.l2.ReadReq_miss_latency                3655000                       # number of ReadReq miss cycles
system.l2.ReadReq_miss_rate                  0.001206                       # miss rate for ReadReq accesses
system.l2.ReadReq_misses                           63                       # number of ReadReq misses
system.l2.ReadReq_mshr_miss_latency           2673000                       # number of ReadReq MSHR miss cycles
system.l2.ReadReq_mshr_miss_rate             0.001186                       # mshr miss rate for ReadReq accesses
system.l2.ReadReq_mshr_misses                      62                       # number of ReadReq MSHR misses
system.l2.UpgradeReq_accesses                   52174                       # number of UpgradeReq accesses(hits+misses)
system.l2.UpgradeReq_avg_miss_latency    60332.406946                       # average UpgradeReq miss latency
system.l2.UpgradeReq_avg_mshr_miss_latency 44607.860237                       # average UpgradeReq mshr miss latency
system.l2.UpgradeReq_miss_latency          3147783000                       # number of UpgradeReq miss cycles
system.l2.UpgradeReq_miss_rate                      1                       # miss rate for UpgradeReq accesses
system.l2.UpgradeReq_misses                     52174                       # number of UpgradeReq misses
system.l2.UpgradeReq_mshr_miss_latency     2327370500                       # number of UpgradeReq MSHR miss cycles
system.l2.UpgradeReq_mshr_miss_rate                 1                       # mshr miss rate for UpgradeReq accesses
system.l2.UpgradeReq_mshr_misses                52174                       # number of UpgradeReq MSHR misses
system.l2.Writeback_accesses                    77244                       # number of Writeback accesses(hits+misses)
system.l2.Writeback_hits                        77244                       # number of Writeback hits
system.l2.avg_blocked_cycles::no_mshrs       no_value                       # average number of cycles each access was blocked
system.l2.avg_blocked_cycles::no_targets     no_value                       # average number of cycles each access was blocked
system.l2.avg_refs                           0.031587                       # Average number of references to valid blocks.
system.l2.blocked::no_mshrs                         0                       # number of cycles access was blocked
system.l2.blocked::no_targets                       0                       # number of cycles access was blocked
system.l2.blocked_cycles::no_mshrs                  0                       # number of cycles access was blocked
system.l2.blocked_cycles::no_targets                0                       # number of cycles access was blocked
system.l2.cache_copies                              0                       # number of cache copies performed
system.l2.demand_accesses                       78346                       # number of demand (read+write) accesses
system.l2.demand_avg_miss_latency        57901.515152                       # average overall miss latency
system.l2.demand_avg_mshr_miss_latency   42969.230769                       # average overall mshr miss latency
system.l2.demand_hits                           78280                       # number of demand (read+write) hits
system.l2.demand_miss_latency                 3821500                       # number of demand (read+write) miss cycles
system.l2.demand_miss_rate                   0.000842                       # miss rate for demand accesses
system.l2.demand_misses                            66                       # number of demand (read+write) misses
system.l2.demand_mshr_hits                          0                       # number of demand (read+write) MSHR hits
system.l2.demand_mshr_miss_latency            2793000                       # number of demand (read+write) MSHR miss cycles
system.l2.demand_mshr_miss_rate              0.000830                       # mshr miss rate for demand accesses
system.l2.demand_mshr_misses                       65                       # number of demand (read+write) MSHR misses
system.l2.fast_writes                               0                       # number of fast writes performed
system.l2.mshr_cap_events                           0                       # number of times MSHR cap was activated
system.l2.no_allocate_misses                        0                       # Number of misses that were no-allocate
system.l2.occ_%::0                           0.004394                       # Average percentage of cache occupancy
system.l2.occ_%::1                           0.451846                       # Average percentage of cache occupancy
system.l2.occ_blocks::0                     71.994205                       # Average occupied blocks per context
system.l2.occ_blocks::1                   7403.037568                       # Average occupied blocks per context
system.l2.overall_accesses                      78346                       # number of overall (read+write) accesses
system.l2.overall_avg_miss_latency       57901.515152                       # average overall miss latency
system.l2.overall_avg_mshr_miss_latency  34423.921475                       # average overall mshr miss latency
system.l2.overall_avg_mshr_uncacheable_latency     no_value                       # average overall mshr uncacheable latency
system.l2.overall_hits                          78280                       # number of overall hits
system.l2.overall_miss_latency                3821500                       # number of overall miss cycles
system.l2.overall_miss_rate                  0.000842                       # miss rate for overall accesses
system.l2.overall_misses                           66                       # number of overall misses
system.l2.overall_mshr_hits                         0                       # number of overall MSHR hits
system.l2.overall_mshr_miss_latency        2703930184                       # number of overall MSHR miss cycles
system.l2.overall_mshr_miss_rate             1.002578                       # mshr miss rate for overall accesses
system.l2.overall_mshr_misses                   78548                       # number of overall MSHR misses
system.l2.overall_mshr_uncacheable_latency            0                       # number of overall MSHR uncacheable cycles
system.l2.overall_mshr_uncacheable_misses            0                       # number of overall MSHR uncacheable misses
system.l2.prefetch_accuracy                  0.664666                       # ratio of good prefetches to total prefetches
system.l2.prefetch_hits                         52165                       # number of prefetched blocks that were accessed
system.l2.prefetcher.num_hwpf_already_in_prefetcher        12901                       # number of hwpf that were already in the prefetch queue
system.l2.prefetcher.num_hwpf_evicted               0                       # number of hwpf removed due to no buffer left
system.l2.prefetcher.num_hwpf_identified        91407                       # number of hwpf identified
system.l2.prefetcher.num_hwpf_issued            78506                       # number of hwpf issued
system.l2.prefetcher.num_hwpf_removed_MSHR_hit            0                       # number of hwpf removed because MSHR allocated
system.l2.prefetcher.num_hwpf_span_page             0                       # number of hwpf spanning a virtual page
system.l2.prefetcher.num_hwpf_squashed_from_miss            0                       # number of hwpf that got squashed due to a miss aborting calculation time
system.l2.replacements                          69267                       # number of replacements
system.l2.sampled_refs                          77532                       # Sample count of references to valid blocks.
system.l2.soft_prefetch_mshr_full                   0                       # number of mshr full events for SW prefetching instrutions
system.l2.tagsinuse                       7475.031773                       # Cycle average of tags in use
system.l2.total_refs                             2449                       # Total number of references to valid blocks.
system.l2.warmup_cycle                              0                       # Cycle when the warmup percentage was hit.
system.l2.writebacks                            69072                       # number of writebacks
system.switch_cpus.dtb.data_accesses          2101668                       # DTB accesses
system.switch_cpus.dtb.data_acv                     0                       # DTB access violations
system.switch_cpus.dtb.data_hits              2101344                       # DTB hits
system.switch_cpus.dtb.data_misses                324                       # DTB misses
system.switch_cpus.dtb.fetch_accesses               0                       # ITB accesses
system.switch_cpus.dtb.fetch_acv                    0                       # ITB acv
system.switch_cpus.dtb.fetch_hits                   0                       # ITB hits
system.switch_cpus.dtb.fetch_misses                 0                       # ITB misses
system.switch_cpus.dtb.read_accesses          1481486                       # DTB read accesses
system.switch_cpus.dtb.read_acv                     0                       # DTB read access violations
system.switch_cpus.dtb.read_hits              1481268                       # DTB read hits
system.switch_cpus.dtb.read_misses                218                       # DTB read misses
system.switch_cpus.dtb.write_accesses          620182                       # DTB write accesses
system.switch_cpus.dtb.write_acv                    0                       # DTB write access violations
system.switch_cpus.dtb.write_hits              620076                       # DTB write hits
system.switch_cpus.dtb.write_misses               106                       # DTB write misses
system.switch_cpus.idle_fraction                    1                       # Percentage of idle cycles
system.switch_cpus.itb.data_accesses                0                       # DTB accesses
system.switch_cpus.itb.data_acv                     0                       # DTB access violations
system.switch_cpus.itb.data_hits                    0                       # DTB hits
system.switch_cpus.itb.data_misses                  0                       # DTB misses
system.switch_cpus.itb.fetch_accesses        10000330                       # ITB accesses
system.switch_cpus.itb.fetch_acv                    0                       # ITB acv
system.switch_cpus.itb.fetch_hits            10000326                       # ITB hits
system.switch_cpus.itb.fetch_misses                 4                       # ITB misses
system.switch_cpus.itb.read_accesses                0                       # DTB read accesses
system.switch_cpus.itb.read_acv                     0                       # DTB read access violations
system.switch_cpus.itb.read_hits                    0                       # DTB read hits
system.switch_cpus.itb.read_misses                  0                       # DTB read misses
system.switch_cpus.itb.write_accesses               0                       # DTB write accesses
system.switch_cpus.itb.write_acv                    0                       # DTB write access violations
system.switch_cpus.itb.write_hits                   0                       # DTB write hits
system.switch_cpus.itb.write_misses                 0                       # DTB write misses
system.switch_cpus.not_idle_fraction                0                       # Percentage of non-idle cycles
system.switch_cpus.numCycles                 28282428                       # number of cpu cycles simulated
system.switch_cpus.num_insts                 10000001                       # Number of instructions executed
system.switch_cpus.num_refs                   2170562                       # Number of memory references
system.switch_cpus_1.BPredUnit.BTBCorrect            0                       # Number of correct BTB predictions (this stat may not work properly.
system.switch_cpus_1.BPredUnit.BTBHits        1224353                       # Number of BTB hits
system.switch_cpus_1.BPredUnit.BTBLookups      2366219                       # Number of BTB lookups
system.switch_cpus_1.BPredUnit.RASInCorrect            2                       # Number of incorrect RAS predictions.
system.switch_cpus_1.BPredUnit.condIncorrect       162562                       # Number of conditional branches incorrect
system.switch_cpus_1.BPredUnit.condPredicted      2052397                       # Number of conditional branches predicted
system.switch_cpus_1.BPredUnit.lookups        2760085                       # Number of BP lookups
system.switch_cpus_1.BPredUnit.usedRAS         240641                       # Number of times the RAS was used to get a target.
system.switch_cpus_1.commit.COM:branches      1390146                       # Number of branches committed
system.switch_cpus_1.commit.COM:bw_lim_events       521460                       # number cycles where commit BW limit reached
system.switch_cpus_1.commit.COM:bw_limited            0                       # number of insts not committed due to BW limits
system.switch_cpus_1.commit.COM:committed_per_cycle::samples      9944938                       # Number of insts commited each cycle
system.switch_cpus_1.commit.COM:committed_per_cycle::mean     1.024959                       # Number of insts commited each cycle
system.switch_cpus_1.commit.COM:committed_per_cycle::stdev     2.110247                       # Number of insts commited each cycle
system.switch_cpus_1.commit.COM:committed_per_cycle::underflows            0      0.00%      0.00% # Number of insts commited each cycle
system.switch_cpus_1.commit.COM:committed_per_cycle::0      6906412     69.45%     69.45% # Number of insts commited each cycle
system.switch_cpus_1.commit.COM:committed_per_cycle::1       989063      9.95%     79.39% # Number of insts commited each cycle
system.switch_cpus_1.commit.COM:committed_per_cycle::2       711535      7.15%     86.55% # Number of insts commited each cycle
system.switch_cpus_1.commit.COM:committed_per_cycle::3       294812      2.96%     89.51% # Number of insts commited each cycle
system.switch_cpus_1.commit.COM:committed_per_cycle::4       194940      1.96%     91.47% # Number of insts commited each cycle
system.switch_cpus_1.commit.COM:committed_per_cycle::5        93975      0.94%     92.42% # Number of insts commited each cycle
system.switch_cpus_1.commit.COM:committed_per_cycle::6       153916      1.55%     93.96% # Number of insts commited each cycle
system.switch_cpus_1.commit.COM:committed_per_cycle::7        78825      0.79%     94.76% # Number of insts commited each cycle
system.switch_cpus_1.commit.COM:committed_per_cycle::8       521460      5.24%    100.00% # Number of insts commited each cycle
system.switch_cpus_1.commit.COM:committed_per_cycle::overflows            0      0.00%    100.00% # Number of insts commited each cycle
system.switch_cpus_1.commit.COM:committed_per_cycle::min_value            0                       # Number of insts commited each cycle
system.switch_cpus_1.commit.COM:committed_per_cycle::max_value            8                       # Number of insts commited each cycle
system.switch_cpus_1.commit.COM:committed_per_cycle::total      9944938                       # Number of insts commited each cycle
system.switch_cpus_1.commit.COM:count        10193155                       # Number of instructions committed
system.switch_cpus_1.commit.COM:loads         1580244                       # Number of loads committed
system.switch_cpus_1.commit.COM:membars             0                       # Number of memory barriers committed
system.switch_cpus_1.commit.COM:refs          2212346                       # Number of memory references committed
system.switch_cpus_1.commit.COM:swp_count            0                       # Number of s/w prefetches committed
system.switch_cpus_1.commit.branchMispredicts       162551                       # The number of times a branch was mispredicted
system.switch_cpus_1.commit.commitCommittedInsts     10193155                       # The number of committed instructions
system.switch_cpus_1.commit.commitSquashedInsts      4297458                       # The number of squashed insts skipped by commit
system.switch_cpus_1.committedInsts          10000003                       # Number of Instructions Simulated
system.switch_cpus_1.committedInsts_total     10000003                       # Number of Instructions Simulated
system.switch_cpus_1.cpi                     1.078597                       # CPI: Cycles Per Instruction
system.switch_cpus_1.cpi_total               1.078597                       # CPI: Total CPI of All Threads
system.switch_cpus_1.decode.DECODE:BlockedCycles      1286157                       # Number of cycles decode is blocked
system.switch_cpus_1.decode.DECODE:BranchMispred           11                       # Number of times decode detected a branch misprediction
system.switch_cpus_1.decode.DECODE:BranchResolved       460663                       # Number of times decode resolved a branch
system.switch_cpus_1.decode.DECODE:DecodedInsts     19160321                       # Number of instructions handled by decode
system.switch_cpus_1.decode.DECODE:IdleCycles      5235454                       # Number of cycles decode is idle
system.switch_cpus_1.decode.DECODE:RunCycles      3405370                       # Number of cycles decode is running
system.switch_cpus_1.decode.DECODE:SquashCycles       806813                       # Number of cycles decode is squashing
system.switch_cpus_1.decode.DECODE:SquashedInsts           46                       # Number of squashed instructions handled by decode
system.switch_cpus_1.decode.DECODE:UnblockCycles        17956                       # Number of cycles decode is unblocking
system.switch_cpus_1.dtb.data_accesses        2858543                       # DTB accesses
system.switch_cpus_1.dtb.data_acv                   0                       # DTB access violations
system.switch_cpus_1.dtb.data_hits            2856974                       # DTB hits
system.switch_cpus_1.dtb.data_misses             1569                       # DTB misses
system.switch_cpus_1.dtb.fetch_accesses             0                       # ITB accesses
system.switch_cpus_1.dtb.fetch_acv                  0                       # ITB acv
system.switch_cpus_1.dtb.fetch_hits                 0                       # ITB hits
system.switch_cpus_1.dtb.fetch_misses               0                       # ITB misses
system.switch_cpus_1.dtb.read_accesses        2203789                       # DTB read accesses
system.switch_cpus_1.dtb.read_acv                   0                       # DTB read access violations
system.switch_cpus_1.dtb.read_hits            2202638                       # DTB read hits
system.switch_cpus_1.dtb.read_misses             1151                       # DTB read misses
system.switch_cpus_1.dtb.write_accesses        654754                       # DTB write accesses
system.switch_cpus_1.dtb.write_acv                  0                       # DTB write access violations
system.switch_cpus_1.dtb.write_hits            654336                       # DTB write hits
system.switch_cpus_1.dtb.write_misses             418                       # DTB write misses
system.switch_cpus_1.fetch.Branches           2760085                       # Number of branches that fetch encountered
system.switch_cpus_1.fetch.CacheLines         2540720                       # Number of cache lines fetched
system.switch_cpus_1.fetch.Cycles             6061366                       # Number of cycles fetch has run and was not squashing or blocked
system.switch_cpus_1.fetch.IcacheSquashes        49161                       # Number of outstanding Icache misses that were squashed
system.switch_cpus_1.fetch.Insts             19610520                       # Number of instructions fetch has processed
system.switch_cpus_1.fetch.SquashCycles        447722                       # Number of cycles fetch has spent squashing
system.switch_cpus_1.fetch.branchRate        0.255896                       # Number of branch fetches per cycle
system.switch_cpus_1.fetch.icacheStallCycles      2540720                       # Number of cycles fetch is stalled on an Icache miss
system.switch_cpus_1.fetch.predictedBranches      1464994                       # Number of branches that fetch has predicted taken
system.switch_cpus_1.fetch.rate              1.818150                       # Number of inst fetches per cycle
system.switch_cpus_1.fetch.rateDist::samples     10751751                       # Number of instructions fetched each cycle (Total)
system.switch_cpus_1.fetch.rateDist::mean     1.823937                       # Number of instructions fetched each cycle (Total)
system.switch_cpus_1.fetch.rateDist::stdev     2.941337                       # Number of instructions fetched each cycle (Total)
system.switch_cpus_1.fetch.rateDist::underflows            0      0.00%      0.00% # Number of instructions fetched each cycle (Total)
system.switch_cpus_1.fetch.rateDist::0        7231113     67.26%     67.26% # Number of instructions fetched each cycle (Total)
system.switch_cpus_1.fetch.rateDist::1         197755      1.84%     69.09% # Number of instructions fetched each cycle (Total)
system.switch_cpus_1.fetch.rateDist::2         182524      1.70%     70.79% # Number of instructions fetched each cycle (Total)
system.switch_cpus_1.fetch.rateDist::3         522894      4.86%     75.66% # Number of instructions fetched each cycle (Total)
system.switch_cpus_1.fetch.rateDist::4         436931      4.06%     79.72% # Number of instructions fetched each cycle (Total)
system.switch_cpus_1.fetch.rateDist::5         245829      2.29%     82.01% # Number of instructions fetched each cycle (Total)
system.switch_cpus_1.fetch.rateDist::6         413610      3.85%     85.85% # Number of instructions fetched each cycle (Total)
system.switch_cpus_1.fetch.rateDist::7         148254      1.38%     87.23% # Number of instructions fetched each cycle (Total)
system.switch_cpus_1.fetch.rateDist::8        1372841     12.77%    100.00% # Number of instructions fetched each cycle (Total)
system.switch_cpus_1.fetch.rateDist::overflows            0      0.00%    100.00% # Number of instructions fetched each cycle (Total)
system.switch_cpus_1.fetch.rateDist::min_value            0                       # Number of instructions fetched each cycle (Total)
system.switch_cpus_1.fetch.rateDist::max_value            8                       # Number of instructions fetched each cycle (Total)
system.switch_cpus_1.fetch.rateDist::total     10751751                       # Number of instructions fetched each cycle (Total)
system.switch_cpus_1.idleCycles                 34223                       # Total number of cycles that the CPU has spent unscheduled due to idling
system.switch_cpus_1.iew.EXEC:branches        1791792                       # Number of branches executed
system.switch_cpus_1.iew.EXEC:nop              264360                       # number of nop insts executed
system.switch_cpus_1.iew.EXEC:rate           1.122735                       # Inst execution rate
system.switch_cpus_1.iew.EXEC:refs            2929521                       # number of memory reference insts executed
system.switch_cpus_1.iew.EXEC:stores           654754                       # Number of stores executed
system.switch_cpus_1.iew.EXEC:swp                   0                       # number of swp insts executed
system.switch_cpus_1.iew.WB:consumers         9240003                       # num instructions consuming a value
system.switch_cpus_1.iew.WB:count            11552361                       # cumulative count of insts written-back
system.switch_cpus_1.iew.WB:fanout           0.681934                       # average fanout of values written-back
system.switch_cpus_1.iew.WB:penalized               0                       # number of instrctions required to write to 'other' IQ
system.switch_cpus_1.iew.WB:penalized_rate            0                       # fraction of instructions written-back that wrote to 'other' IQ
system.switch_cpus_1.iew.WB:producers         6301069                       # num instructions producing a value
system.switch_cpus_1.iew.WB:rate             1.071054                       # insts written-back per cycle
system.switch_cpus_1.iew.WB:sent             11562608                       # cumulative count of insts sent to commit
system.switch_cpus_1.iew.branchMispredicts       182289                       # Number of branch mispredicts detected at execute
system.switch_cpus_1.iew.iewBlockCycles        576091                       # Number of cycles IEW is blocking
system.switch_cpus_1.iew.iewDispLoadInsts      2429711                       # Number of dispatched load instructions
system.switch_cpus_1.iew.iewDispNonSpecInsts            0                       # Number of dispatched non-speculative instructions
system.switch_cpus_1.iew.iewDispSquashedInsts      1429157                       # Number of squashed instructions skipped by dispatch
system.switch_cpus_1.iew.iewDispStoreInsts       750291                       # Number of dispatched store instructions
system.switch_cpus_1.iew.iewDispatchedInsts     14497168                       # Number of instructions dispatched to IQ
system.switch_cpus_1.iew.iewExecLoadInsts      2274767                       # Number of load instructions executed
system.switch_cpus_1.iew.iewExecSquashedInsts       363591                       # Number of squashed instructions skipped in execute
system.switch_cpus_1.iew.iewExecutedInsts     12109792                       # Number of executed instructions
system.switch_cpus_1.iew.iewIQFullEvents       137193                       # Number of times the IQ has become full, causing a stall
system.switch_cpus_1.iew.iewIdleCycles              0                       # Number of cycles IEW is idle
system.switch_cpus_1.iew.iewLSQFullEvents            0                       # Number of times the LSQ has become full, causing a stall
system.switch_cpus_1.iew.iewSquashCycles       806813                       # Number of cycles IEW is squashing
system.switch_cpus_1.iew.iewUnblockCycles       140999                       # Number of cycles IEW is unblocking
system.switch_cpus_1.iew.lsq.thread.0.blockedLoads            0                       # Number of blocked loads due to partial load-store forwarding
system.switch_cpus_1.iew.lsq.thread.0.cacheBlocked       533188                       # Number of times an access to memory failed due to the cache being blocked
system.switch_cpus_1.iew.lsq.thread.0.forwLoads       266019                       # Number of loads that had data forwarded from stores
system.switch_cpus_1.iew.lsq.thread.0.ignoredResponses            6                       # Number of memory responses ignored because the instruction is squashed
system.switch_cpus_1.iew.lsq.thread.0.invAddrLoads            0                       # Number of loads ignored due to an invalid address
system.switch_cpus_1.iew.lsq.thread.0.invAddrSwpfs            0                       # Number of software prefetches ignored due to an invalid address
system.switch_cpus_1.iew.lsq.thread.0.memOrderViolation          125                       # Number of memory ordering violations
system.switch_cpus_1.iew.lsq.thread.0.rescheduledLoads            0                       # Number of loads that were rescheduled
system.switch_cpus_1.iew.lsq.thread.0.squashedLoads       849444                       # Number of loads squashed
system.switch_cpus_1.iew.lsq.thread.0.squashedStores       118185                       # Number of stores squashed
system.switch_cpus_1.iew.memOrderViolationEvents          125                       # Number of memory order violations
system.switch_cpus_1.iew.predictedNotTakenIncorrect        41881                       # Number of branches that were predicted not taken incorrectly
system.switch_cpus_1.iew.predictedTakenIncorrect       140408                       # Number of branches that were predicted taken incorrectly
system.switch_cpus_1.ipc                     0.927130                       # IPC: Instructions Per Cycle
system.switch_cpus_1.ipc_total               0.927130                       # IPC: Total IPC of All Threads
system.switch_cpus_1.iq.ISSUE:FU_type_0::No_OpClass            0      0.00%      0.00% # Type of FU issued
system.switch_cpus_1.iq.ISSUE:FU_type_0::IntAlu      4887378     39.18%     39.18% # Type of FU issued
system.switch_cpus_1.iq.ISSUE:FU_type_0::IntMult        35131      0.28%     39.46% # Type of FU issued
system.switch_cpus_1.iq.ISSUE:FU_type_0::IntDiv            0      0.00%     39.46% # Type of FU issued
system.switch_cpus_1.iq.ISSUE:FU_type_0::FloatAdd      2270296     18.20%     57.67% # Type of FU issued
system.switch_cpus_1.iq.ISSUE:FU_type_0::FloatCmp       258462      2.07%     59.74% # Type of FU issued
system.switch_cpus_1.iq.ISSUE:FU_type_0::FloatCvt       106221      0.85%     60.59% # Type of FU issued
system.switch_cpus_1.iq.ISSUE:FU_type_0::FloatMult      1500081     12.03%     72.62% # Type of FU issued
system.switch_cpus_1.iq.ISSUE:FU_type_0::FloatDiv       352472      2.83%     75.44% # Type of FU issued
system.switch_cpus_1.iq.ISSUE:FU_type_0::FloatSqrt        35118      0.28%     75.72% # Type of FU issued
system.switch_cpus_1.iq.ISSUE:FU_type_0::MemRead      2371650     19.01%     94.74% # Type of FU issued
system.switch_cpus_1.iq.ISSUE:FU_type_0::MemWrite       656577      5.26%    100.00% # Type of FU issued
system.switch_cpus_1.iq.ISSUE:FU_type_0::IprAccess            0      0.00%    100.00% # Type of FU issued
system.switch_cpus_1.iq.ISSUE:FU_type_0::InstPrefetch            0      0.00%    100.00% # Type of FU issued
system.switch_cpus_1.iq.ISSUE:FU_type_0::total     12473386                       # Type of FU issued
system.switch_cpus_1.iq.ISSUE:fu_busy_cnt       518933                       # FU busy when requested
system.switch_cpus_1.iq.ISSUE:fu_busy_rate     0.041603                       # FU busy rate (busy events/executed inst)
system.switch_cpus_1.iq.ISSUE:fu_full::No_OpClass            0      0.00%      0.00% # attempts to use FU when none available
system.switch_cpus_1.iq.ISSUE:fu_full::IntAlu        16038      3.09%      3.09% # attempts to use FU when none available
system.switch_cpus_1.iq.ISSUE:fu_full::IntMult            0      0.00%      3.09% # attempts to use FU when none available
system.switch_cpus_1.iq.ISSUE:fu_full::IntDiv            0      0.00%      3.09% # attempts to use FU when none available
system.switch_cpus_1.iq.ISSUE:fu_full::FloatAdd         4540      0.87%      3.97% # attempts to use FU when none available
system.switch_cpus_1.iq.ISSUE:fu_full::FloatCmp           42      0.01%      3.97% # attempts to use FU when none available
system.switch_cpus_1.iq.ISSUE:fu_full::FloatCvt            0      0.00%      3.97% # attempts to use FU when none available
system.switch_cpus_1.iq.ISSUE:fu_full::FloatMult       289718     55.83%     59.80% # attempts to use FU when none available
system.switch_cpus_1.iq.ISSUE:fu_full::FloatDiv       114958     22.15%     81.96% # attempts to use FU when none available
system.switch_cpus_1.iq.ISSUE:fu_full::FloatSqrt            0      0.00%     81.96% # attempts to use FU when none available
system.switch_cpus_1.iq.ISSUE:fu_full::MemRead        92870     17.90%     99.85% # attempts to use FU when none available
system.switch_cpus_1.iq.ISSUE:fu_full::MemWrite          767      0.15%    100.00% # attempts to use FU when none available
system.switch_cpus_1.iq.ISSUE:fu_full::IprAccess            0      0.00%    100.00% # attempts to use FU when none available
system.switch_cpus_1.iq.ISSUE:fu_full::InstPrefetch            0      0.00%    100.00% # attempts to use FU when none available
system.switch_cpus_1.iq.ISSUE:issued_per_cycle::samples     10751751                       # Number of insts issued each cycle
system.switch_cpus_1.iq.ISSUE:issued_per_cycle::mean     1.160126                       # Number of insts issued each cycle
system.switch_cpus_1.iq.ISSUE:issued_per_cycle::stdev     1.605581                       # Number of insts issued each cycle
system.switch_cpus_1.iq.ISSUE:issued_per_cycle::underflows            0      0.00%      0.00% # Number of insts issued each cycle
system.switch_cpus_1.iq.ISSUE:issued_per_cycle::0      5674754     52.78%     52.78% # Number of insts issued each cycle
system.switch_cpus_1.iq.ISSUE:issued_per_cycle::1      1716553     15.97%     68.75% # Number of insts issued each cycle
system.switch_cpus_1.iq.ISSUE:issued_per_cycle::2      1365897     12.70%     81.45% # Number of insts issued each cycle
system.switch_cpus_1.iq.ISSUE:issued_per_cycle::3       855032      7.95%     89.40% # Number of insts issued each cycle
system.switch_cpus_1.iq.ISSUE:issued_per_cycle::4       609351      5.67%     95.07% # Number of insts issued each cycle
system.switch_cpus_1.iq.ISSUE:issued_per_cycle::5       251228      2.34%     97.41% # Number of insts issued each cycle
system.switch_cpus_1.iq.ISSUE:issued_per_cycle::6       203112      1.89%     99.29% # Number of insts issued each cycle
system.switch_cpus_1.iq.ISSUE:issued_per_cycle::7        58865      0.55%     99.84% # Number of insts issued each cycle
system.switch_cpus_1.iq.ISSUE:issued_per_cycle::8        16959      0.16%    100.00% # Number of insts issued each cycle
system.switch_cpus_1.iq.ISSUE:issued_per_cycle::overflows            0      0.00%    100.00% # Number of insts issued each cycle
system.switch_cpus_1.iq.ISSUE:issued_per_cycle::min_value            0                       # Number of insts issued each cycle
system.switch_cpus_1.iq.ISSUE:issued_per_cycle::max_value            8                       # Number of insts issued each cycle
system.switch_cpus_1.iq.ISSUE:issued_per_cycle::total     10751751                       # Number of insts issued each cycle
system.switch_cpus_1.iq.ISSUE:rate           1.156445                       # Inst issue rate
system.switch_cpus_1.iq.iqInstsAdded         14232808                       # Number of instructions added to the IQ (excludes non-spec)
system.switch_cpus_1.iq.iqInstsIssued        12473386                       # Number of instructions issued
system.switch_cpus_1.iq.iqSquashedInstsExamined      4232623                       # Number of squashed instructions iterated over during squash; mainly for profiling
system.switch_cpus_1.iq.iqSquashedInstsIssued        70580                       # Number of squashed instructions issued
system.switch_cpus_1.iq.iqSquashedOperandsExamined      3792735                       # Number of squashed operands that are examined and possibly removed from graph
system.switch_cpus_1.itb.data_accesses              0                       # DTB accesses
system.switch_cpus_1.itb.data_acv                   0                       # DTB access violations
system.switch_cpus_1.itb.data_hits                  0                       # DTB hits
system.switch_cpus_1.itb.data_misses                0                       # DTB misses
system.switch_cpus_1.itb.fetch_accesses       2540728                       # ITB accesses
system.switch_cpus_1.itb.fetch_acv                  0                       # ITB acv
system.switch_cpus_1.itb.fetch_hits           2540720                       # ITB hits
system.switch_cpus_1.itb.fetch_misses               8                       # ITB misses
system.switch_cpus_1.itb.read_accesses              0                       # DTB read accesses
system.switch_cpus_1.itb.read_acv                   0                       # DTB read access violations
system.switch_cpus_1.itb.read_hits                  0                       # DTB read hits
system.switch_cpus_1.itb.read_misses                0                       # DTB read misses
system.switch_cpus_1.itb.write_accesses             0                       # DTB write accesses
system.switch_cpus_1.itb.write_acv                  0                       # DTB write access violations
system.switch_cpus_1.itb.write_hits                 0                       # DTB write hits
system.switch_cpus_1.itb.write_misses               0                       # DTB write misses
system.switch_cpus_1.memDep0.conflictingLoads       562393                       # Number of conflicting loads.
system.switch_cpus_1.memDep0.conflictingStores       100663                       # Number of conflicting stores.
system.switch_cpus_1.memDep0.insertedLoads      2429711                       # Number of loads inserted to the mem dependence unit.
system.switch_cpus_1.memDep0.insertedStores       750291                       # Number of stores inserted to the mem dependence unit.
system.switch_cpus_1.numCycles               10785974                       # number of cpu cycles simulated
system.switch_cpus_1.rename.RENAME:BlockCycles       987709                       # Number of cycles rename is blocking
system.switch_cpus_1.rename.RENAME:CommittedMaps      8012869                       # Number of HB maps that are committed
system.switch_cpus_1.rename.RENAME:IQFullEvents       131362                       # Number of times rename has blocked due to IQ full
system.switch_cpus_1.rename.RENAME:IdleCycles      5404011                       # Number of cycles rename is idle
system.switch_cpus_1.rename.RENAME:LSQFullEvents       106847                       # Number of times rename has blocked due to LSQ full
system.switch_cpus_1.rename.RENAME:ROBFullEvents          578                       # Number of times rename has blocked due to ROB full
system.switch_cpus_1.rename.RENAME:RenameLookups     28025529                       # Number of register rename lookups that rename has made
system.switch_cpus_1.rename.RENAME:RenamedInsts     18603844                       # Number of instructions processed by rename
system.switch_cpus_1.rename.RENAME:RenamedOperands     14967932                       # Number of destination operands rename has renamed
system.switch_cpus_1.rename.RENAME:RunCycles      3277142                       # Number of cycles rename is running
system.switch_cpus_1.rename.RENAME:SquashCycles       806813                       # Number of cycles rename is squashing
system.switch_cpus_1.rename.RENAME:UnblockCycles       276075                       # Number of cycles rename is unblocking
system.switch_cpus_1.rename.RENAME:UndoneMaps      6954962                       # Number of HB maps that are undone due to squashing
system.switch_cpus_1.rename.RENAME:serializeStallCycles            0                       # count of cycles rename stalled for serializing inst
system.switch_cpus_1.rename.RENAME:serializingInsts            0                       # count of serializing insts renamed
system.switch_cpus_1.rename.RENAME:skidInsts       740459                       # count of insts added to the skid buffer
system.switch_cpus_1.rename.RENAME:tempSerializingInsts            0                       # count of temporary serializing insts renamed
system.switch_cpus_1.timesIdled                 10988                       # Number of times that the entire CPU went into an idle state and unscheduled itself

---------- End Simulation Statistics   ----------
