
---------- Begin Simulation Statistics ----------
host_inst_rate                                 383664                       # Simulator instruction rate (inst/s)
host_mem_usage                                 402752                       # Number of bytes of host memory used
host_seconds                                    52.13                       # Real time elapsed on the host
host_tick_rate                              343090513                       # Simulator tick rate (ticks/s)
sim_freq                                 1000000000000                       # Frequency of simulated ticks
sim_insts                                    20000003                       # Number of instructions simulated
sim_seconds                                  0.017885                       # Number of seconds simulated
sim_ticks                                 17885005500                       # Number of ticks simulated
system.cpu.dcache.ReadReq_accesses            3315714                       # number of ReadReq accesses(hits+misses)
system.cpu.dcache.ReadReq_avg_miss_latency 19844.121284                       # average ReadReq miss latency
system.cpu.dcache.ReadReq_avg_mshr_miss_latency 17212.199241                       # average ReadReq mshr miss latency
system.cpu.dcache.ReadReq_hits                3225150                       # number of ReadReq hits
system.cpu.dcache.ReadReq_miss_latency     1797163000                       # number of ReadReq miss cycles
system.cpu.dcache.ReadReq_miss_rate          0.027314                       # miss rate for ReadReq accesses
system.cpu.dcache.ReadReq_misses                90564                       # number of ReadReq misses
system.cpu.dcache.ReadReq_mshr_hits              6485                       # number of ReadReq MSHR hits
system.cpu.dcache.ReadReq_mshr_miss_latency   1447184500                       # number of ReadReq MSHR miss cycles
system.cpu.dcache.ReadReq_mshr_miss_rate     0.025358                       # mshr miss rate for ReadReq accesses
system.cpu.dcache.ReadReq_mshr_misses           84079                       # number of ReadReq MSHR misses
system.cpu.dcache.WriteReq_accesses           2822830                       # number of WriteReq accesses(hits+misses)
system.cpu.dcache.WriteReq_avg_miss_latency 25043.391188                       # average WriteReq miss latency
system.cpu.dcache.WriteReq_avg_mshr_miss_latency 22401.344676                       # average WriteReq mshr miss latency
system.cpu.dcache.WriteReq_hits               2818336                       # number of WriteReq hits
system.cpu.dcache.WriteReq_miss_latency     112545000                       # number of WriteReq miss cycles
system.cpu.dcache.WriteReq_miss_rate         0.001592                       # miss rate for WriteReq accesses
system.cpu.dcache.WriteReq_misses                4494                       # number of WriteReq misses
system.cpu.dcache.WriteReq_mshr_hits              849                       # number of WriteReq MSHR hits
system.cpu.dcache.WriteReq_mshr_miss_latency     81630500                       # number of WriteReq MSHR miss cycles
system.cpu.dcache.WriteReq_mshr_miss_rate     0.001291                       # mshr miss rate for WriteReq accesses
system.cpu.dcache.WriteReq_mshr_misses           3644                       # number of WriteReq MSHR misses
system.cpu.dcache.avg_blocked_cycles::no_mshrs     no_value                       # average number of cycles each access was blocked
system.cpu.dcache.avg_blocked_cycles::no_targets 50536.082474                       # average number of cycles each access was blocked
system.cpu.dcache.avg_refs                  69.477414                       # Average number of references to valid blocks.
system.cpu.dcache.blocked::no_mshrs                 0                       # number of cycles access was blocked
system.cpu.dcache.blocked::no_targets              97                       # number of cycles access was blocked
system.cpu.dcache.blocked_cycles::no_mshrs            0                       # number of cycles access was blocked
system.cpu.dcache.blocked_cycles::no_targets      4902000                       # number of cycles access was blocked
system.cpu.dcache.cache_copies                      0                       # number of cache copies performed
system.cpu.dcache.demand_accesses             6138544                       # number of demand (read+write) accesses
system.cpu.dcache.demand_avg_miss_latency 20089.924046                       # average overall miss latency
system.cpu.dcache.demand_avg_mshr_miss_latency 17427.755549                       # average overall mshr miss latency
system.cpu.dcache.demand_hits                 6043486                       # number of demand (read+write) hits
system.cpu.dcache.demand_miss_latency      1909708000                       # number of demand (read+write) miss cycles
system.cpu.dcache.demand_miss_rate           0.015485                       # miss rate for demand accesses
system.cpu.dcache.demand_misses                 95058                       # number of demand (read+write) misses
system.cpu.dcache.demand_mshr_hits               7334                       # number of demand (read+write) MSHR hits
system.cpu.dcache.demand_mshr_miss_latency   1528815000                       # number of demand (read+write) MSHR miss cycles
system.cpu.dcache.demand_mshr_miss_rate      0.014291                       # mshr miss rate for demand accesses
system.cpu.dcache.demand_mshr_misses            87723                       # number of demand (read+write) MSHR misses
system.cpu.dcache.fast_writes                       0                       # number of fast writes performed
system.cpu.dcache.mshr_cap_events                   0                       # number of times MSHR cap was activated
system.cpu.dcache.no_allocate_misses                0                       # Number of misses that were no-allocate
system.cpu.dcache.occ_%::0                   0.980665                       # Average percentage of cache occupancy
system.cpu.dcache.occ_blocks::0           1004.201347                       # Average occupied blocks per context
system.cpu.dcache.overall_accesses            6138544                       # number of overall (read+write) accesses
system.cpu.dcache.overall_avg_miss_latency 20089.924046                       # average overall miss latency
system.cpu.dcache.overall_avg_mshr_miss_latency 17427.755549                       # average overall mshr miss latency
system.cpu.dcache.overall_avg_mshr_uncacheable_latency     no_value                       # average overall mshr uncacheable latency
system.cpu.dcache.overall_hits                6043486                       # number of overall hits
system.cpu.dcache.overall_miss_latency     1909708000                       # number of overall miss cycles
system.cpu.dcache.overall_miss_rate          0.015485                       # miss rate for overall accesses
system.cpu.dcache.overall_misses                95058                       # number of overall misses
system.cpu.dcache.overall_mshr_hits              7334                       # number of overall MSHR hits
system.cpu.dcache.overall_mshr_miss_latency   1528815000                       # number of overall MSHR miss cycles
system.cpu.dcache.overall_mshr_miss_rate     0.014291                       # mshr miss rate for overall accesses
system.cpu.dcache.overall_mshr_misses           87723                       # number of overall MSHR misses
system.cpu.dcache.overall_mshr_uncacheable_latency            0                       # number of overall MSHR uncacheable cycles
system.cpu.dcache.overall_mshr_uncacheable_misses            0                       # number of overall MSHR uncacheable misses
system.cpu.dcache.prefetch_accuracy          no_value                       # ratio of good prefetches to total prefetches
system.cpu.dcache.prefetch_hits                     0                       # number of prefetched blocks that were accessed
system.cpu.dcache.replacements                  85976                       # number of replacements
system.cpu.dcache.sampled_refs                  87000                       # Sample count of references to valid blocks.
system.cpu.dcache.soft_prefetch_mshr_full            0                       # number of mshr full events for SW prefetching instrutions
system.cpu.dcache.tagsinuse               1004.201347                       # Cycle average of tags in use
system.cpu.dcache.total_refs                  6044535                       # Total number of references to valid blocks.
system.cpu.dcache.warmup_cycle           502117525000                       # Cycle when the warmup percentage was hit.
system.cpu.dcache.writebacks                     3601                       # number of writebacks
system.cpu.dtb.data_accesses                        1                       # DTB accesses
system.cpu.dtb.data_acv                             0                       # DTB access violations
system.cpu.dtb.data_hits                            1                       # DTB hits
system.cpu.dtb.data_misses                          0                       # DTB misses
system.cpu.dtb.fetch_accesses                       0                       # ITB accesses
system.cpu.dtb.fetch_acv                            0                       # ITB acv
system.cpu.dtb.fetch_hits                           0                       # ITB hits
system.cpu.dtb.fetch_misses                         0                       # ITB misses
system.cpu.dtb.read_accesses                        0                       # DTB read accesses
system.cpu.dtb.read_acv                             0                       # DTB read access violations
system.cpu.dtb.read_hits                            0                       # DTB read hits
system.cpu.dtb.read_misses                          0                       # DTB read misses
system.cpu.dtb.write_accesses                       1                       # DTB write accesses
system.cpu.dtb.write_acv                            0                       # DTB write access violations
system.cpu.dtb.write_hits                           1                       # DTB write hits
system.cpu.dtb.write_misses                         0                       # DTB write misses
system.cpu.icache.ReadReq_accesses           12220892                       # number of ReadReq accesses(hits+misses)
system.cpu.icache.ReadReq_avg_miss_latency 48730.769231                       # average ReadReq miss latency
system.cpu.icache.ReadReq_avg_mshr_miss_latency 57062.500000                       # average ReadReq mshr miss latency
system.cpu.icache.ReadReq_hits               12220879                       # number of ReadReq hits
system.cpu.icache.ReadReq_miss_latency         633500                       # number of ReadReq miss cycles
system.cpu.icache.ReadReq_miss_rate          0.000001                       # miss rate for ReadReq accesses
system.cpu.icache.ReadReq_misses                   13                       # number of ReadReq misses
system.cpu.icache.ReadReq_mshr_hits                 4                       # number of ReadReq MSHR hits
system.cpu.icache.ReadReq_mshr_miss_latency       456500                       # number of ReadReq MSHR miss cycles
system.cpu.icache.ReadReq_mshr_miss_rate     0.000001                       # mshr miss rate for ReadReq accesses
system.cpu.icache.ReadReq_mshr_misses               8                       # number of ReadReq MSHR misses
system.cpu.icache.avg_blocked_cycles::no_mshrs     no_value                       # average number of cycles each access was blocked
system.cpu.icache.avg_blocked_cycles::no_targets        23500                       # average number of cycles each access was blocked
system.cpu.icache.avg_refs               1357875.444444                       # Average number of references to valid blocks.
system.cpu.icache.blocked::no_mshrs                 0                       # number of cycles access was blocked
system.cpu.icache.blocked::no_targets               1                       # number of cycles access was blocked
system.cpu.icache.blocked_cycles::no_mshrs            0                       # number of cycles access was blocked
system.cpu.icache.blocked_cycles::no_targets        23500                       # number of cycles access was blocked
system.cpu.icache.cache_copies                      0                       # number of cache copies performed
system.cpu.icache.demand_accesses            12220892                       # number of demand (read+write) accesses
system.cpu.icache.demand_avg_miss_latency 48730.769231                       # average overall miss latency
system.cpu.icache.demand_avg_mshr_miss_latency 57062.500000                       # average overall mshr miss latency
system.cpu.icache.demand_hits                12220879                       # number of demand (read+write) hits
system.cpu.icache.demand_miss_latency          633500                       # number of demand (read+write) miss cycles
system.cpu.icache.demand_miss_rate           0.000001                       # miss rate for demand accesses
system.cpu.icache.demand_misses                    13                       # number of demand (read+write) misses
system.cpu.icache.demand_mshr_hits                  4                       # number of demand (read+write) MSHR hits
system.cpu.icache.demand_mshr_miss_latency       456500                       # number of demand (read+write) MSHR miss cycles
system.cpu.icache.demand_mshr_miss_rate      0.000001                       # mshr miss rate for demand accesses
system.cpu.icache.demand_mshr_misses                8                       # number of demand (read+write) MSHR misses
system.cpu.icache.fast_writes                       0                       # number of fast writes performed
system.cpu.icache.mshr_cap_events                   0                       # number of times MSHR cap was activated
system.cpu.icache.no_allocate_misses                0                       # Number of misses that were no-allocate
system.cpu.icache.occ_%::0                   0.012808                       # Average percentage of cache occupancy
system.cpu.icache.occ_blocks::0              6.557583                       # Average occupied blocks per context
system.cpu.icache.overall_accesses           12220892                       # number of overall (read+write) accesses
system.cpu.icache.overall_avg_miss_latency 48730.769231                       # average overall miss latency
system.cpu.icache.overall_avg_mshr_miss_latency 57062.500000                       # average overall mshr miss latency
system.cpu.icache.overall_avg_mshr_uncacheable_latency     no_value                       # average overall mshr uncacheable latency
system.cpu.icache.overall_hits               12220879                       # number of overall hits
system.cpu.icache.overall_miss_latency         633500                       # number of overall miss cycles
system.cpu.icache.overall_miss_rate          0.000001                       # miss rate for overall accesses
system.cpu.icache.overall_misses                   13                       # number of overall misses
system.cpu.icache.overall_mshr_hits                 4                       # number of overall MSHR hits
system.cpu.icache.overall_mshr_miss_latency       456500                       # number of overall MSHR miss cycles
system.cpu.icache.overall_mshr_miss_rate     0.000001                       # mshr miss rate for overall accesses
system.cpu.icache.overall_mshr_misses               8                       # number of overall MSHR misses
system.cpu.icache.overall_mshr_uncacheable_latency            0                       # number of overall MSHR uncacheable cycles
system.cpu.icache.overall_mshr_uncacheable_misses            0                       # number of overall MSHR uncacheable misses
system.cpu.icache.prefetch_accuracy          no_value                       # ratio of good prefetches to total prefetches
system.cpu.icache.prefetch_hits                     0                       # number of prefetched blocks that were accessed
system.cpu.icache.replacements                      0                       # number of replacements
system.cpu.icache.sampled_refs                      9                       # Sample count of references to valid blocks.
system.cpu.icache.soft_prefetch_mshr_full            0                       # number of mshr full events for SW prefetching instrutions
system.cpu.icache.tagsinuse                  6.557583                       # Cycle average of tags in use
system.cpu.icache.total_refs                 12220879                       # Total number of references to valid blocks.
system.cpu.icache.warmup_cycle                      0                       # Cycle when the warmup percentage was hit.
system.cpu.icache.writebacks                        0                       # number of writebacks
system.cpu.idle_fraction                            0                       # Percentage of idle cycles
system.cpu.itb.data_accesses                        0                       # DTB accesses
system.cpu.itb.data_acv                             0                       # DTB access violations
system.cpu.itb.data_hits                            0                       # DTB hits
system.cpu.itb.data_misses                          0                       # DTB misses
system.cpu.itb.fetch_accesses                       2                       # ITB accesses
system.cpu.itb.fetch_acv                            0                       # ITB acv
system.cpu.itb.fetch_hits                           2                       # ITB hits
system.cpu.itb.fetch_misses                         0                       # ITB misses
system.cpu.itb.read_accesses                        0                       # DTB read accesses
system.cpu.itb.read_acv                             0                       # DTB read access violations
system.cpu.itb.read_hits                            0                       # DTB read hits
system.cpu.itb.read_misses                          0                       # DTB read misses
system.cpu.itb.write_accesses                       0                       # DTB write accesses
system.cpu.itb.write_acv                            0                       # DTB write access violations
system.cpu.itb.write_hits                           0                       # DTB write hits
system.cpu.itb.write_misses                         0                       # DTB write misses
system.cpu.not_idle_fraction                        1                       # Percentage of non-idle cycles
system.cpu.numCycles                                2                       # number of cpu cycles simulated
system.cpu.num_insts                                2                       # Number of instructions executed
system.cpu.num_refs                                 1                       # Number of memory references
system.cpu.workload.PROG:num_syscalls               0                       # Number of system calls
system.l2.HardPFReq_avg_mshr_miss_latency 43893.433214                       # average HardPFReq mshr miss latency
system.l2.HardPFReq_mshr_miss_latency       625349743                       # number of HardPFReq MSHR miss cycles
system.l2.HardPFReq_mshr_miss_rate                inf                       # mshr miss rate for HardPFReq accesses
system.l2.HardPFReq_mshr_misses                 14247                       # number of HardPFReq MSHR misses
system.l2.ReadExReq_accesses                     2921                       # number of ReadExReq accesses(hits+misses)
system.l2.ReadExReq_avg_miss_latency     56543.750000                       # average ReadExReq miss latency
system.l2.ReadExReq_avg_mshr_miss_latency 40911.949686                       # average ReadExReq mshr miss latency
system.l2.ReadExReq_hits                         2761                       # number of ReadExReq hits
system.l2.ReadExReq_miss_latency              9047000                       # number of ReadExReq miss cycles
system.l2.ReadExReq_miss_rate                0.054776                       # miss rate for ReadExReq accesses
system.l2.ReadExReq_misses                        160                       # number of ReadExReq misses
system.l2.ReadExReq_mshr_miss_latency         6505000                       # number of ReadExReq MSHR miss cycles
system.l2.ReadExReq_mshr_miss_rate           0.054433                       # mshr miss rate for ReadExReq accesses
system.l2.ReadExReq_mshr_misses                   159                       # number of ReadExReq MSHR misses
system.l2.ReadReq_accesses                      84088                       # number of ReadReq accesses(hits+misses)
system.l2.ReadReq_avg_miss_latency       58635.671741                       # average ReadReq miss latency
system.l2.ReadReq_avg_mshr_miss_latency  42914.768938                       # average ReadReq mshr miss latency
system.l2.ReadReq_hits                          73511                       # number of ReadReq hits
system.l2.ReadReq_miss_latency              620189500                       # number of ReadReq miss cycles
system.l2.ReadReq_miss_rate                  0.125785                       # miss rate for ReadReq accesses
system.l2.ReadReq_misses                        10577                       # number of ReadReq misses
system.l2.ReadReq_mshr_hits                        81                       # number of ReadReq MSHR hits
system.l2.ReadReq_mshr_miss_latency         450390500                       # number of ReadReq MSHR miss cycles
system.l2.ReadReq_mshr_miss_rate             0.124810                       # mshr miss rate for ReadReq accesses
system.l2.ReadReq_mshr_misses                   10495                       # number of ReadReq MSHR misses
system.l2.UpgradeReq_accesses                     724                       # number of UpgradeReq accesses(hits+misses)
system.l2.UpgradeReq_avg_miss_latency    56892.265193                       # average UpgradeReq miss latency
system.l2.UpgradeReq_avg_mshr_miss_latency 40941.298343                       # average UpgradeReq mshr miss latency
system.l2.UpgradeReq_miss_latency            41190000                       # number of UpgradeReq miss cycles
system.l2.UpgradeReq_miss_rate                      1                       # miss rate for UpgradeReq accesses
system.l2.UpgradeReq_misses                       724                       # number of UpgradeReq misses
system.l2.UpgradeReq_mshr_miss_latency       29641500                       # number of UpgradeReq MSHR miss cycles
system.l2.UpgradeReq_mshr_miss_rate                 1                       # mshr miss rate for UpgradeReq accesses
system.l2.UpgradeReq_mshr_misses                  724                       # number of UpgradeReq MSHR misses
system.l2.Writeback_accesses                     3601                       # number of Writeback accesses(hits+misses)
system.l2.Writeback_hits                         3601                       # number of Writeback hits
system.l2.avg_blocked_cycles::no_mshrs       no_value                       # average number of cycles each access was blocked
system.l2.avg_blocked_cycles::no_targets     no_value                       # average number of cycles each access was blocked
system.l2.avg_refs                           3.035993                       # Average number of references to valid blocks.
system.l2.blocked::no_mshrs                         0                       # number of cycles access was blocked
system.l2.blocked::no_targets                       0                       # number of cycles access was blocked
system.l2.blocked_cycles::no_mshrs                  0                       # number of cycles access was blocked
system.l2.blocked_cycles::no_targets                0                       # number of cycles access was blocked
system.l2.cache_copies                              0                       # number of cache copies performed
system.l2.demand_accesses                       87009                       # number of demand (read+write) accesses
system.l2.demand_avg_miss_latency        58604.498463                       # average overall miss latency
system.l2.demand_avg_mshr_miss_latency   42884.878919                       # average overall mshr miss latency
system.l2.demand_hits                           76272                       # number of demand (read+write) hits
system.l2.demand_miss_latency               629236500                       # number of demand (read+write) miss cycles
system.l2.demand_miss_rate                   0.123401                       # miss rate for demand accesses
system.l2.demand_misses                         10737                       # number of demand (read+write) misses
system.l2.demand_mshr_hits                         81                       # number of demand (read+write) MSHR hits
system.l2.demand_mshr_miss_latency          456895500                       # number of demand (read+write) MSHR miss cycles
system.l2.demand_mshr_miss_rate              0.122447                       # mshr miss rate for demand accesses
system.l2.demand_mshr_misses                    10654                       # number of demand (read+write) MSHR misses
system.l2.fast_writes                               0                       # number of fast writes performed
system.l2.mshr_cap_events                           0                       # number of times MSHR cap was activated
system.l2.no_allocate_misses                        0                       # Number of misses that were no-allocate
system.l2.occ_%::0                           0.553417                       # Average percentage of cache occupancy
system.l2.occ_%::1                           0.047560                       # Average percentage of cache occupancy
system.l2.occ_blocks::0                   9067.188613                       # Average occupied blocks per context
system.l2.occ_blocks::1                    779.217503                       # Average occupied blocks per context
system.l2.overall_accesses                      87009                       # number of overall (read+write) accesses
system.l2.overall_avg_miss_latency       58604.498463                       # average overall miss latency
system.l2.overall_avg_mshr_miss_latency  43461.918919                       # average overall mshr miss latency
system.l2.overall_avg_mshr_uncacheable_latency     no_value                       # average overall mshr uncacheable latency
system.l2.overall_hits                          76272                       # number of overall hits
system.l2.overall_miss_latency              629236500                       # number of overall miss cycles
system.l2.overall_miss_rate                  0.123401                       # miss rate for overall accesses
system.l2.overall_misses                        10737                       # number of overall misses
system.l2.overall_mshr_hits                        81                       # number of overall MSHR hits
system.l2.overall_mshr_miss_latency        1082245243                       # number of overall MSHR miss cycles
system.l2.overall_mshr_miss_rate             0.286189                       # mshr miss rate for overall accesses
system.l2.overall_mshr_misses                   24901                       # number of overall MSHR misses
system.l2.overall_mshr_uncacheable_latency            0                       # number of overall MSHR uncacheable cycles
system.l2.overall_mshr_uncacheable_misses            0                       # number of overall MSHR uncacheable misses
system.l2.prefetch_accuracy                  0.746684                       # ratio of good prefetches to total prefetches
system.l2.prefetch_hits                         10638                       # number of prefetched blocks that were accessed
system.l2.prefetcher.num_hwpf_already_in_prefetcher         1200                       # number of hwpf that were already in the prefetch queue
system.l2.prefetcher.num_hwpf_evicted               0                       # number of hwpf removed due to no buffer left
system.l2.prefetcher.num_hwpf_identified        15972                       # number of hwpf identified
system.l2.prefetcher.num_hwpf_issued            14590                       # number of hwpf issued
system.l2.prefetcher.num_hwpf_removed_MSHR_hit          182                       # number of hwpf removed because MSHR allocated
system.l2.prefetcher.num_hwpf_span_page             0                       # number of hwpf spanning a virtual page
system.l2.prefetcher.num_hwpf_squashed_from_miss            0                       # number of hwpf that got squashed due to a miss aborting calculation time
system.l2.replacements                           9816                       # number of replacements
system.l2.sampled_refs                          24755                       # Sample count of references to valid blocks.
system.l2.soft_prefetch_mshr_full                   0                       # number of mshr full events for SW prefetching instrutions
system.l2.tagsinuse                       9846.406116                       # Cycle average of tags in use
system.l2.total_refs                            75156                       # Total number of references to valid blocks.
system.l2.warmup_cycle                              0                       # Cycle when the warmup percentage was hit.
system.l2.writebacks                             1330                       # number of writebacks
system.switch_cpus.dtb.data_accesses          2972120                       # DTB accesses
system.switch_cpus.dtb.data_acv                     0                       # DTB access violations
system.switch_cpus.dtb.data_hits              2969257                       # DTB hits
system.switch_cpus.dtb.data_misses               2863                       # DTB misses
system.switch_cpus.dtb.fetch_accesses               0                       # ITB accesses
system.switch_cpus.dtb.fetch_acv                    0                       # ITB acv
system.switch_cpus.dtb.fetch_hits                   0                       # ITB hits
system.switch_cpus.dtb.fetch_misses                 0                       # ITB misses
system.switch_cpus.dtb.read_accesses          1546660                       # DTB read accesses
system.switch_cpus.dtb.read_acv                     0                       # DTB read access violations
system.switch_cpus.dtb.read_hits              1543848                       # DTB read hits
system.switch_cpus.dtb.read_misses               2812                       # DTB read misses
system.switch_cpus.dtb.write_accesses         1425460                       # DTB write accesses
system.switch_cpus.dtb.write_acv                    0                       # DTB write access violations
system.switch_cpus.dtb.write_hits             1425409                       # DTB write hits
system.switch_cpus.dtb.write_misses                51                       # DTB write misses
system.switch_cpus.idle_fraction                    1                       # Percentage of idle cycles
system.switch_cpus.itb.data_accesses                0                       # DTB accesses
system.switch_cpus.itb.data_acv                     0                       # DTB access violations
system.switch_cpus.itb.data_hits                    0                       # DTB hits
system.switch_cpus.itb.data_misses                  0                       # DTB misses
system.switch_cpus.itb.fetch_accesses        10002866                       # ITB accesses
system.switch_cpus.itb.fetch_acv                    0                       # ITB acv
system.switch_cpus.itb.fetch_hits            10002865                       # ITB hits
system.switch_cpus.itb.fetch_misses                 1                       # ITB misses
system.switch_cpus.itb.read_accesses                0                       # DTB read accesses
system.switch_cpus.itb.read_acv                     0                       # DTB read access violations
system.switch_cpus.itb.read_hits                    0                       # DTB read hits
system.switch_cpus.itb.read_misses                  0                       # DTB read misses
system.switch_cpus.itb.write_accesses               0                       # DTB write accesses
system.switch_cpus.itb.write_acv                    0                       # DTB write access violations
system.switch_cpus.itb.write_hits                   0                       # DTB write hits
system.switch_cpus.itb.write_misses                 0                       # DTB write misses
system.switch_cpus.not_idle_fraction                0                       # Percentage of non-idle cycles
system.switch_cpus.numCycles                 27596200                       # number of cpu cycles simulated
system.switch_cpus.num_insts                 10000001                       # Number of instructions executed
system.switch_cpus.num_refs                   2972120                       # Number of memory references
system.switch_cpus_1.BPredUnit.BTBCorrect            0                       # Number of correct BTB predictions (this stat may not work properly.
system.switch_cpus_1.BPredUnit.BTBHits        1999574                       # Number of BTB hits
system.switch_cpus_1.BPredUnit.BTBLookups      2060637                       # Number of BTB lookups
system.switch_cpus_1.BPredUnit.RASInCorrect            0                       # Number of incorrect RAS predictions.
system.switch_cpus_1.BPredUnit.condIncorrect       157897                       # Number of conditional branches incorrect
system.switch_cpus_1.BPredUnit.condPredicted      2143801                       # Number of conditional branches predicted
system.switch_cpus_1.BPredUnit.lookups        2297733                       # Number of BP lookups
system.switch_cpus_1.BPredUnit.usedRAS              0                       # Number of times the RAS was used to get a target.
system.switch_cpus_1.commit.COM:branches      1623752                       # Number of branches committed
system.switch_cpus_1.commit.COM:bw_lim_events        93958                       # number cycles where commit BW limit reached
system.switch_cpus_1.commit.COM:bw_limited            0                       # number of insts not committed due to BW limits
system.switch_cpus_1.commit.COM:committed_per_cycle::samples      7701101                       # Number of insts commited each cycle
system.switch_cpus_1.commit.COM:committed_per_cycle::mean     1.350263                       # Number of insts commited each cycle
system.switch_cpus_1.commit.COM:committed_per_cycle::stdev     1.782020                       # Number of insts commited each cycle
system.switch_cpus_1.commit.COM:committed_per_cycle::underflows            0      0.00%      0.00% # Number of insts commited each cycle
system.switch_cpus_1.commit.COM:committed_per_cycle::0      3125664     40.59%     40.59% # Number of insts commited each cycle
system.switch_cpus_1.commit.COM:committed_per_cycle::1      2841754     36.90%     77.49% # Number of insts commited each cycle
system.switch_cpus_1.commit.COM:committed_per_cycle::2       168154      2.18%     79.67% # Number of insts commited each cycle
system.switch_cpus_1.commit.COM:committed_per_cycle::3        73570      0.96%     80.63% # Number of insts commited each cycle
system.switch_cpus_1.commit.COM:committed_per_cycle::4       755251      9.81%     90.43% # Number of insts commited each cycle
system.switch_cpus_1.commit.COM:committed_per_cycle::5       633040      8.22%     98.65% # Number of insts commited each cycle
system.switch_cpus_1.commit.COM:committed_per_cycle::6         6102      0.08%     98.73% # Number of insts commited each cycle
system.switch_cpus_1.commit.COM:committed_per_cycle::7         3608      0.05%     98.78% # Number of insts commited each cycle
system.switch_cpus_1.commit.COM:committed_per_cycle::8        93958      1.22%    100.00% # Number of insts commited each cycle
system.switch_cpus_1.commit.COM:committed_per_cycle::overflows            0      0.00%    100.00% # Number of insts commited each cycle
system.switch_cpus_1.commit.COM:committed_per_cycle::min_value            0                       # Number of insts commited each cycle
system.switch_cpus_1.commit.COM:committed_per_cycle::max_value            8                       # Number of insts commited each cycle
system.switch_cpus_1.commit.COM:committed_per_cycle::total      7701101                       # Number of insts commited each cycle
system.switch_cpus_1.commit.COM:count        10398508                       # Number of instructions committed
system.switch_cpus_1.commit.COM:loads         1606582                       # Number of loads committed
system.switch_cpus_1.commit.COM:membars             0                       # Number of memory barriers committed
system.switch_cpus_1.commit.COM:refs          3004003                       # Number of memory references committed
system.switch_cpus_1.commit.COM:swp_count            0                       # Number of s/w prefetches committed
system.switch_cpus_1.commit.branchMispredicts       157893                       # The number of times a branch was mispredicted
system.switch_cpus_1.commit.commitCommittedInsts     10398508                       # The number of committed instructions
system.switch_cpus_1.commit.commitSquashedInsts      2774490                       # The number of squashed insts skipped by commit
system.switch_cpus_1.committedInsts          10000000                       # Number of Instructions Simulated
system.switch_cpus_1.committedInsts_total     10000000                       # Number of Instructions Simulated
system.switch_cpus_1.cpi                     0.817381                       # CPI: Cycles Per Instruction
system.switch_cpus_1.cpi_total               0.817381                       # CPI: Total CPI of All Threads
system.switch_cpus_1.decode.DECODE:BlockedCycles        38539                       # Number of cycles decode is blocked
system.switch_cpus_1.decode.DECODE:BranchMispred          221                       # Number of times decode detected a branch misprediction
system.switch_cpus_1.decode.DECODE:BranchResolved       150039                       # Number of times decode resolved a branch
system.switch_cpus_1.decode.DECODE:DecodedInsts     14362651                       # Number of instructions handled by decode
system.switch_cpus_1.decode.DECODE:IdleCycles      4437036                       # Number of cycles decode is idle
system.switch_cpus_1.decode.DECODE:RunCycles      3223757                       # Number of cycles decode is running
system.switch_cpus_1.decode.DECODE:SquashCycles       460498                       # Number of cycles decode is squashing
system.switch_cpus_1.decode.DECODE:SquashedInsts            8                       # Number of squashed instructions handled by decode
system.switch_cpus_1.decode.DECODE:UnblockCycles         1768                       # Number of cycles decode is unblocking
system.switch_cpus_1.dtb.data_accesses        3523322                       # DTB accesses
system.switch_cpus_1.dtb.data_acv                   0                       # DTB access violations
system.switch_cpus_1.dtb.data_hits            3516974                       # DTB hits
system.switch_cpus_1.dtb.data_misses             6348                       # DTB misses
system.switch_cpus_1.dtb.fetch_accesses             0                       # ITB accesses
system.switch_cpus_1.dtb.fetch_acv                  0                       # ITB acv
system.switch_cpus_1.dtb.fetch_hits                 0                       # ITB hits
system.switch_cpus_1.dtb.fetch_misses               0                       # ITB misses
system.switch_cpus_1.dtb.read_accesses        1898662                       # DTB read accesses
system.switch_cpus_1.dtb.read_acv                   0                       # DTB read access violations
system.switch_cpus_1.dtb.read_hits            1892566                       # DTB read hits
system.switch_cpus_1.dtb.read_misses             6096                       # DTB read misses
system.switch_cpus_1.dtb.write_accesses       1624660                       # DTB write accesses
system.switch_cpus_1.dtb.write_acv                  0                       # DTB write access violations
system.switch_cpus_1.dtb.write_hits           1624408                       # DTB write hits
system.switch_cpus_1.dtb.write_misses             252                       # DTB write misses
system.switch_cpus_1.fetch.Branches           2297733                       # Number of branches that fetch encountered
system.switch_cpus_1.fetch.CacheLines         2218025                       # Number of cache lines fetched
system.switch_cpus_1.fetch.Cycles             5482700                       # Number of cycles fetch has run and was not squashing or blocked
system.switch_cpus_1.fetch.IcacheSquashes        41986                       # Number of outstanding Icache misses that were squashed
system.switch_cpus_1.fetch.Insts             14597131                       # Number of instructions fetch has processed
system.switch_cpus_1.fetch.SquashCycles        172685                       # Number of cycles fetch has spent squashing
system.switch_cpus_1.fetch.branchRate        0.281109                       # Number of branch fetches per cycle
system.switch_cpus_1.fetch.icacheStallCycles      2218025                       # Number of cycles fetch is stalled on an Icache miss
system.switch_cpus_1.fetch.predictedBranches      1999574                       # Number of branches that fetch has predicted taken
system.switch_cpus_1.fetch.rate              1.785842                       # Number of inst fetches per cycle
system.switch_cpus_1.fetch.rateDist::samples      8161599                       # Number of instructions fetched each cycle (Total)
system.switch_cpus_1.fetch.rateDist::mean     1.788514                       # Number of instructions fetched each cycle (Total)
system.switch_cpus_1.fetch.rateDist::stdev     2.716772                       # Number of instructions fetched each cycle (Total)
system.switch_cpus_1.fetch.rateDist::underflows            0      0.00%      0.00% # Number of instructions fetched each cycle (Total)
system.switch_cpus_1.fetch.rateDist::0        4896924     60.00%     60.00% # Number of instructions fetched each cycle (Total)
system.switch_cpus_1.fetch.rateDist::1         789433      9.67%     69.67% # Number of instructions fetched each cycle (Total)
system.switch_cpus_1.fetch.rateDist::2         170834      2.09%     71.77% # Number of instructions fetched each cycle (Total)
system.switch_cpus_1.fetch.rateDist::3          51617      0.63%     72.40% # Number of instructions fetched each cycle (Total)
system.switch_cpus_1.fetch.rateDist::4         604506      7.41%     79.80% # Number of instructions fetched each cycle (Total)
system.switch_cpus_1.fetch.rateDist::5         596772      7.31%     87.12% # Number of instructions fetched each cycle (Total)
system.switch_cpus_1.fetch.rateDist::6          31631      0.39%     87.50% # Number of instructions fetched each cycle (Total)
system.switch_cpus_1.fetch.rateDist::7         439547      5.39%     92.89% # Number of instructions fetched each cycle (Total)
system.switch_cpus_1.fetch.rateDist::8         580335      7.11%    100.00% # Number of instructions fetched each cycle (Total)
system.switch_cpus_1.fetch.rateDist::overflows            0      0.00%    100.00% # Number of instructions fetched each cycle (Total)
system.switch_cpus_1.fetch.rateDist::min_value            0                       # Number of instructions fetched each cycle (Total)
system.switch_cpus_1.fetch.rateDist::max_value            8                       # Number of instructions fetched each cycle (Total)
system.switch_cpus_1.fetch.rateDist::total      8161599                       # Number of instructions fetched each cycle (Total)
system.switch_cpus_1.idleCycles                 12211                       # Total number of cycles that the CPU has spent unscheduled due to idling
system.switch_cpus_1.iew.EXEC:branches        1975436                       # Number of branches executed
system.switch_cpus_1.iew.EXEC:nop              860038                       # number of nop insts executed
system.switch_cpus_1.iew.EXEC:rate           1.446185                       # Inst execution rate
system.switch_cpus_1.iew.EXEC:refs            3523322                       # number of memory reference insts executed
system.switch_cpus_1.iew.EXEC:stores          1624660                       # Number of stores executed
system.switch_cpus_1.iew.EXEC:swp                   0                       # number of swp insts executed
system.switch_cpus_1.iew.WB:consumers         8695079                       # num instructions consuming a value
system.switch_cpus_1.iew.WB:count            11746396                       # cumulative count of insts written-back
system.switch_cpus_1.iew.WB:fanout           0.764477                       # average fanout of values written-back
system.switch_cpus_1.iew.WB:penalized               0                       # number of instrctions required to write to 'other' IQ
system.switch_cpus_1.iew.WB:penalized_rate            0                       # fraction of instructions written-back that wrote to 'other' IQ
system.switch_cpus_1.iew.WB:producers         6647188                       # num instructions producing a value
system.switch_cpus_1.iew.WB:rate             1.437077                       # insts written-back per cycle
system.switch_cpus_1.iew.WB:sent             11755210                       # cumulative count of insts sent to commit
system.switch_cpus_1.iew.branchMispredicts       170996                       # Number of branch mispredicts detected at execute
system.switch_cpus_1.iew.iewBlockCycles          2167                       # Number of cycles IEW is blocking
system.switch_cpus_1.iew.iewDispLoadInsts      1985973                       # Number of dispatched load instructions
system.switch_cpus_1.iew.iewDispNonSpecInsts            0                       # Number of dispatched non-speculative instructions
system.switch_cpus_1.iew.iewDispSquashedInsts       387221                       # Number of squashed instructions skipped by dispatch
system.switch_cpus_1.iew.iewDispStoreInsts      1700214                       # Number of dispatched store instructions
system.switch_cpus_1.iew.iewDispatchedInsts     13267612                       # Number of instructions dispatched to IQ
system.switch_cpus_1.iew.iewExecLoadInsts      1898662                       # Number of load instructions executed
system.switch_cpus_1.iew.iewExecSquashedInsts       153140                       # Number of squashed instructions skipped in execute
system.switch_cpus_1.iew.iewExecutedInsts     11820845                       # Number of executed instructions
system.switch_cpus_1.iew.iewIQFullEvents           75                       # Number of times the IQ has become full, causing a stall
system.switch_cpus_1.iew.iewIdleCycles              0                       # Number of cycles IEW is idle
system.switch_cpus_1.iew.iewLSQFullEvents            1                       # Number of times the LSQ has become full, causing a stall
system.switch_cpus_1.iew.iewSquashCycles       460498                       # Number of cycles IEW is squashing
system.switch_cpus_1.iew.iewUnblockCycles          100                       # Number of cycles IEW is unblocking
system.switch_cpus_1.iew.lsq.thread.0.blockedLoads            0                       # Number of blocked loads due to partial load-store forwarding
system.switch_cpus_1.iew.lsq.thread.0.cacheBlocked          242                       # Number of times an access to memory failed due to the cache being blocked
system.switch_cpus_1.iew.lsq.thread.0.forwLoads       120537                       # Number of loads that had data forwarded from stores
system.switch_cpus_1.iew.lsq.thread.0.ignoredResponses        10541                       # Number of memory responses ignored because the instruction is squashed
system.switch_cpus_1.iew.lsq.thread.0.invAddrLoads            0                       # Number of loads ignored due to an invalid address
system.switch_cpus_1.iew.lsq.thread.0.invAddrSwpfs            0                       # Number of software prefetches ignored due to an invalid address
system.switch_cpus_1.iew.lsq.thread.0.memOrderViolation        12076                       # Number of memory ordering violations
system.switch_cpus_1.iew.lsq.thread.0.rescheduledLoads            0                       # Number of loads that were rescheduled
system.switch_cpus_1.iew.lsq.thread.0.squashedLoads       379390                       # Number of loads squashed
system.switch_cpus_1.iew.lsq.thread.0.squashedStores       302792                       # Number of stores squashed
system.switch_cpus_1.iew.memOrderViolationEvents        12076                       # Number of memory order violations
system.switch_cpus_1.iew.predictedNotTakenIncorrect        28245                       # Number of branches that were predicted not taken incorrectly
system.switch_cpus_1.iew.predictedTakenIncorrect       142751                       # Number of branches that were predicted taken incorrectly
system.switch_cpus_1.ipc                     1.223420                       # IPC: Instructions Per Cycle
system.switch_cpus_1.ipc_total               1.223420                       # IPC: Total IPC of All Threads
system.switch_cpus_1.iq.ISSUE:FU_type_0::No_OpClass            0      0.00%      0.00% # Type of FU issued
system.switch_cpus_1.iq.ISSUE:FU_type_0::IntAlu      8412269     70.25%     70.25% # Type of FU issued
system.switch_cpus_1.iq.ISSUE:FU_type_0::IntMult            0      0.00%     70.25% # Type of FU issued
system.switch_cpus_1.iq.ISSUE:FU_type_0::IntDiv            0      0.00%     70.25% # Type of FU issued
system.switch_cpus_1.iq.ISSUE:FU_type_0::FloatAdd            0      0.00%     70.25% # Type of FU issued
system.switch_cpus_1.iq.ISSUE:FU_type_0::FloatCmp            0      0.00%     70.25% # Type of FU issued
system.switch_cpus_1.iq.ISSUE:FU_type_0::FloatCvt            0      0.00%     70.25% # Type of FU issued
system.switch_cpus_1.iq.ISSUE:FU_type_0::FloatMult            0      0.00%     70.25% # Type of FU issued
system.switch_cpus_1.iq.ISSUE:FU_type_0::FloatDiv            0      0.00%     70.25% # Type of FU issued
system.switch_cpus_1.iq.ISSUE:FU_type_0::FloatSqrt            0      0.00%     70.25% # Type of FU issued
system.switch_cpus_1.iq.ISSUE:FU_type_0::MemRead      1913730     15.98%     86.24% # Type of FU issued
system.switch_cpus_1.iq.ISSUE:FU_type_0::MemWrite      1647987     13.76%    100.00% # Type of FU issued
system.switch_cpus_1.iq.ISSUE:FU_type_0::IprAccess            0      0.00%    100.00% # Type of FU issued
system.switch_cpus_1.iq.ISSUE:FU_type_0::InstPrefetch            0      0.00%    100.00% # Type of FU issued
system.switch_cpus_1.iq.ISSUE:FU_type_0::total     11973986                       # Type of FU issued
system.switch_cpus_1.iq.ISSUE:fu_busy_cnt         6109                       # FU busy when requested
system.switch_cpus_1.iq.ISSUE:fu_busy_rate     0.000510                       # FU busy rate (busy events/executed inst)
system.switch_cpus_1.iq.ISSUE:fu_full::No_OpClass            0      0.00%      0.00% # attempts to use FU when none available
system.switch_cpus_1.iq.ISSUE:fu_full::IntAlu         6104     99.92%     99.92% # attempts to use FU when none available
system.switch_cpus_1.iq.ISSUE:fu_full::IntMult            0      0.00%     99.92% # attempts to use FU when none available
system.switch_cpus_1.iq.ISSUE:fu_full::IntDiv            0      0.00%     99.92% # attempts to use FU when none available
system.switch_cpus_1.iq.ISSUE:fu_full::FloatAdd            0      0.00%     99.92% # attempts to use FU when none available
system.switch_cpus_1.iq.ISSUE:fu_full::FloatCmp            0      0.00%     99.92% # attempts to use FU when none available
system.switch_cpus_1.iq.ISSUE:fu_full::FloatCvt            0      0.00%     99.92% # attempts to use FU when none available
system.switch_cpus_1.iq.ISSUE:fu_full::FloatMult            0      0.00%     99.92% # attempts to use FU when none available
system.switch_cpus_1.iq.ISSUE:fu_full::FloatDiv            0      0.00%     99.92% # attempts to use FU when none available
system.switch_cpus_1.iq.ISSUE:fu_full::FloatSqrt            0      0.00%     99.92% # attempts to use FU when none available
system.switch_cpus_1.iq.ISSUE:fu_full::MemRead            5      0.08%    100.00% # attempts to use FU when none available
system.switch_cpus_1.iq.ISSUE:fu_full::MemWrite            0      0.00%    100.00% # attempts to use FU when none available
system.switch_cpus_1.iq.ISSUE:fu_full::IprAccess            0      0.00%    100.00% # attempts to use FU when none available
system.switch_cpus_1.iq.ISSUE:fu_full::InstPrefetch            0      0.00%    100.00% # attempts to use FU when none available
system.switch_cpus_1.iq.ISSUE:issued_per_cycle::samples      8161599                       # Number of insts issued each cycle
system.switch_cpus_1.iq.ISSUE:issued_per_cycle::mean     1.467113                       # Number of insts issued each cycle
system.switch_cpus_1.iq.ISSUE:issued_per_cycle::stdev     1.312543                       # Number of insts issued each cycle
system.switch_cpus_1.iq.ISSUE:issued_per_cycle::underflows            0      0.00%      0.00% # Number of insts issued each cycle
system.switch_cpus_1.iq.ISSUE:issued_per_cycle::0      2125512     26.04%     26.04% # Number of insts issued each cycle
system.switch_cpus_1.iq.ISSUE:issued_per_cycle::1      2519858     30.87%     56.92% # Number of insts issued each cycle
system.switch_cpus_1.iq.ISSUE:issued_per_cycle::2      2314818     28.36%     85.28% # Number of insts issued each cycle
system.switch_cpus_1.iq.ISSUE:issued_per_cycle::3       184857      2.26%     87.54% # Number of insts issued each cycle
system.switch_cpus_1.iq.ISSUE:issued_per_cycle::4       850470     10.42%     97.97% # Number of insts issued each cycle
system.switch_cpus_1.iq.ISSUE:issued_per_cycle::5       134089      1.64%     99.61% # Number of insts issued each cycle
system.switch_cpus_1.iq.ISSUE:issued_per_cycle::6        26462      0.32%     99.93% # Number of insts issued each cycle
system.switch_cpus_1.iq.ISSUE:issued_per_cycle::7         5440      0.07%    100.00% # Number of insts issued each cycle
system.switch_cpus_1.iq.ISSUE:issued_per_cycle::8           93      0.00%    100.00% # Number of insts issued each cycle
system.switch_cpus_1.iq.ISSUE:issued_per_cycle::overflows            0      0.00%    100.00% # Number of insts issued each cycle
system.switch_cpus_1.iq.ISSUE:issued_per_cycle::min_value            0                       # Number of insts issued each cycle
system.switch_cpus_1.iq.ISSUE:issued_per_cycle::max_value            8                       # Number of insts issued each cycle
system.switch_cpus_1.iq.ISSUE:issued_per_cycle::total      8161599                       # Number of insts issued each cycle
system.switch_cpus_1.iq.ISSUE:rate           1.464921                       # Inst issue rate
system.switch_cpus_1.iq.iqInstsAdded         12407574                       # Number of instructions added to the IQ (excludes non-spec)
system.switch_cpus_1.iq.iqInstsIssued        11973986                       # Number of instructions issued
system.switch_cpus_1.iq.iqSquashedInstsExamined      2128043                       # Number of squashed instructions iterated over during squash; mainly for profiling
system.switch_cpus_1.iq.iqSquashedInstsIssued         1802                       # Number of squashed instructions issued
system.switch_cpus_1.iq.iqSquashedOperandsExamined       800540                       # Number of squashed operands that are examined and possibly removed from graph
system.switch_cpus_1.itb.data_accesses              0                       # DTB accesses
system.switch_cpus_1.itb.data_acv                   0                       # DTB access violations
system.switch_cpus_1.itb.data_hits                  0                       # DTB hits
system.switch_cpus_1.itb.data_misses                0                       # DTB misses
system.switch_cpus_1.itb.fetch_accesses       2218026                       # ITB accesses
system.switch_cpus_1.itb.fetch_acv                  0                       # ITB acv
system.switch_cpus_1.itb.fetch_hits           2218025                       # ITB hits
system.switch_cpus_1.itb.fetch_misses               1                       # ITB misses
system.switch_cpus_1.itb.read_accesses              0                       # DTB read accesses
system.switch_cpus_1.itb.read_acv                   0                       # DTB read access violations
system.switch_cpus_1.itb.read_hits                  0                       # DTB read hits
system.switch_cpus_1.itb.read_misses                0                       # DTB read misses
system.switch_cpus_1.itb.write_accesses             0                       # DTB write accesses
system.switch_cpus_1.itb.write_acv                  0                       # DTB write access violations
system.switch_cpus_1.itb.write_hits                 0                       # DTB write hits
system.switch_cpus_1.itb.write_misses               0                       # DTB write misses
system.switch_cpus_1.memDep0.conflictingLoads       615004                       # Number of conflicting loads.
system.switch_cpus_1.memDep0.conflictingStores       584005                       # Number of conflicting stores.
system.switch_cpus_1.memDep0.insertedLoads      1985973                       # Number of loads inserted to the mem dependence unit.
system.switch_cpus_1.memDep0.insertedStores      1700214                       # Number of stores inserted to the mem dependence unit.
system.switch_cpus_1.numCycles                8173810                       # number of cpu cycles simulated
system.switch_cpus_1.rename.RENAME:BlockCycles        26982                       # Number of cycles rename is blocking
system.switch_cpus_1.rename.RENAME:CommittedMaps      6978824                       # Number of HB maps that are committed
system.switch_cpus_1.rename.RENAME:IQFullEvents          292                       # Number of times rename has blocked due to IQ full
system.switch_cpus_1.rename.RENAME:IdleCycles      4487274                       # Number of cycles rename is idle
system.switch_cpus_1.rename.RENAME:LSQFullEvents        10760                       # Number of times rename has blocked due to LSQ full
system.switch_cpus_1.rename.RENAME:ROBFullEvents         1257                       # Number of times rename has blocked due to ROB full
system.switch_cpus_1.rename.RENAME:RenameLookups     18828210                       # Number of register rename lookups that rename has made
system.switch_cpus_1.rename.RENAME:RenamedInsts     14159828                       # Number of instructions processed by rename
system.switch_cpus_1.rename.RENAME:RenamedOperands      9251328                       # Number of destination operands rename has renamed
system.switch_cpus_1.rename.RENAME:RunCycles      3174876                       # Number of cycles rename is running
system.switch_cpus_1.rename.RENAME:SquashCycles       460498                       # Number of cycles rename is squashing
system.switch_cpus_1.rename.RENAME:UnblockCycles        11968                       # Number of cycles rename is unblocking
system.switch_cpus_1.rename.RENAME:UndoneMaps      2272491                       # Number of HB maps that are undone due to squashing
system.switch_cpus_1.rename.RENAME:serializeStallCycles            0                       # count of cycles rename stalled for serializing inst
system.switch_cpus_1.rename.RENAME:serializingInsts            0                       # count of serializing insts renamed
system.switch_cpus_1.rename.RENAME:skidInsts        23259                       # count of insts added to the skid buffer
system.switch_cpus_1.rename.RENAME:tempSerializingInsts            0                       # count of temporary serializing insts renamed
system.switch_cpus_1.timesIdled                   483                       # Number of times that the entire CPU went into an idle state and unscheduled itself

---------- End Simulation Statistics   ----------
