
---------- Begin Simulation Statistics ----------
host_inst_rate                                 342587                       # Simulator instruction rate (inst/s)
host_mem_usage                                 406964                       # Number of bytes of host memory used
host_seconds                                    58.38                       # Real time elapsed on the host
host_tick_rate                              316334127                       # Simulator tick rate (ticks/s)
sim_freq                                 1000000000000                       # Frequency of simulated ticks
sim_insts                                    20000010                       # Number of instructions simulated
sim_seconds                                  0.018467                       # Number of seconds simulated
sim_ticks                                 18467465500                       # Number of ticks simulated
system.cpu.dcache.ReadReq_accesses            4258732                       # number of ReadReq accesses(hits+misses)
system.cpu.dcache.ReadReq_avg_miss_latency 41893.566870                       # average ReadReq miss latency
system.cpu.dcache.ReadReq_avg_mshr_miss_latency 39630.727666                       # average ReadReq mshr miss latency
system.cpu.dcache.ReadReq_hits                4231156                       # number of ReadReq hits
system.cpu.dcache.ReadReq_miss_latency     1155257000                       # number of ReadReq miss cycles
system.cpu.dcache.ReadReq_miss_rate          0.006475                       # miss rate for ReadReq accesses
system.cpu.dcache.ReadReq_misses                27576                       # number of ReadReq misses
system.cpu.dcache.ReadReq_mshr_hits             13696                       # number of ReadReq MSHR hits
system.cpu.dcache.ReadReq_mshr_miss_latency    550074500                       # number of ReadReq MSHR miss cycles
system.cpu.dcache.ReadReq_mshr_miss_rate     0.003259                       # mshr miss rate for ReadReq accesses
system.cpu.dcache.ReadReq_mshr_misses           13880                       # number of ReadReq MSHR misses
system.cpu.dcache.WriteReq_accesses           2851610                       # number of WriteReq accesses(hits+misses)
system.cpu.dcache.WriteReq_avg_miss_latency 82735.049839                       # average WriteReq miss latency
system.cpu.dcache.WriteReq_avg_mshr_miss_latency 89599.410233                       # average WriteReq mshr miss latency
system.cpu.dcache.WriteReq_hits               2799924                       # number of WriteReq hits
system.cpu.dcache.WriteReq_miss_latency    4276243786                       # number of WriteReq miss cycles
system.cpu.dcache.WriteReq_miss_rate         0.018125                       # miss rate for WriteReq accesses
system.cpu.dcache.WriteReq_misses               51686                       # number of WriteReq misses
system.cpu.dcache.WriteReq_mshr_hits            25418                       # number of WriteReq MSHR hits
system.cpu.dcache.WriteReq_mshr_miss_latency   2353597308                       # number of WriteReq MSHR miss cycles
system.cpu.dcache.WriteReq_mshr_miss_rate     0.009212                       # mshr miss rate for WriteReq accesses
system.cpu.dcache.WriteReq_mshr_misses          26268                       # number of WriteReq MSHR misses
system.cpu.dcache.avg_blocked_cycles::no_mshrs 21454.575592                       # average number of cycles each access was blocked
system.cpu.dcache.avg_blocked_cycles::no_targets 58370.252847                       # average number of cycles each access was blocked
system.cpu.dcache.avg_refs                 242.192858                       # Average number of references to valid blocks.
system.cpu.dcache.blocked::no_mshrs              4220                       # number of cycles access was blocked
system.cpu.dcache.blocked::no_targets            9484                       # number of cycles access was blocked
system.cpu.dcache.blocked_cycles::no_mshrs     90538309                       # number of cycles access was blocked
system.cpu.dcache.blocked_cycles::no_targets    553583478                       # number of cycles access was blocked
system.cpu.dcache.cache_copies                      0                       # number of cache copies performed
system.cpu.dcache.demand_accesses             7110342                       # number of demand (read+write) accesses
system.cpu.dcache.demand_avg_miss_latency 68525.911357                       # average overall miss latency
system.cpu.dcache.demand_avg_mshr_miss_latency 72324.195676                       # average overall mshr miss latency
system.cpu.dcache.demand_hits                 7031080                       # number of demand (read+write) hits
system.cpu.dcache.demand_miss_latency      5431500786                       # number of demand (read+write) miss cycles
system.cpu.dcache.demand_miss_rate           0.011147                       # miss rate for demand accesses
system.cpu.dcache.demand_misses                 79262                       # number of demand (read+write) misses
system.cpu.dcache.demand_mshr_hits              39114                       # number of demand (read+write) MSHR hits
system.cpu.dcache.demand_mshr_miss_latency   2903671808                       # number of demand (read+write) MSHR miss cycles
system.cpu.dcache.demand_mshr_miss_rate      0.005646                       # mshr miss rate for demand accesses
system.cpu.dcache.demand_mshr_misses            40148                       # number of demand (read+write) MSHR misses
system.cpu.dcache.fast_writes                       0                       # number of fast writes performed
system.cpu.dcache.mshr_cap_events                   0                       # number of times MSHR cap was activated
system.cpu.dcache.no_allocate_misses                0                       # Number of misses that were no-allocate
system.cpu.dcache.occ_%::0                   0.965690                       # Average percentage of cache occupancy
system.cpu.dcache.occ_blocks::0            988.867014                       # Average occupied blocks per context
system.cpu.dcache.overall_accesses            7110342                       # number of overall (read+write) accesses
system.cpu.dcache.overall_avg_miss_latency 68525.911357                       # average overall miss latency
system.cpu.dcache.overall_avg_mshr_miss_latency 72324.195676                       # average overall mshr miss latency
system.cpu.dcache.overall_avg_mshr_uncacheable_latency     no_value                       # average overall mshr uncacheable latency
system.cpu.dcache.overall_hits                7031080                       # number of overall hits
system.cpu.dcache.overall_miss_latency     5431500786                       # number of overall miss cycles
system.cpu.dcache.overall_miss_rate          0.011147                       # miss rate for overall accesses
system.cpu.dcache.overall_misses                79262                       # number of overall misses
system.cpu.dcache.overall_mshr_hits             39114                       # number of overall MSHR hits
system.cpu.dcache.overall_mshr_miss_latency   2903671808                       # number of overall MSHR miss cycles
system.cpu.dcache.overall_mshr_miss_rate     0.005646                       # mshr miss rate for overall accesses
system.cpu.dcache.overall_mshr_misses           40148                       # number of overall MSHR misses
system.cpu.dcache.overall_mshr_uncacheable_latency            0                       # number of overall MSHR uncacheable cycles
system.cpu.dcache.overall_mshr_uncacheable_misses            0                       # number of overall MSHR uncacheable misses
system.cpu.dcache.prefetch_accuracy          no_value                       # ratio of good prefetches to total prefetches
system.cpu.dcache.prefetch_hits                     0                       # number of prefetched blocks that were accessed
system.cpu.dcache.replacements                  28101                       # number of replacements
system.cpu.dcache.sampled_refs                  29125                       # Sample count of references to valid blocks.
system.cpu.dcache.soft_prefetch_mshr_full            0                       # number of mshr full events for SW prefetching instrutions
system.cpu.dcache.tagsinuse                988.867014                       # Cycle average of tags in use
system.cpu.dcache.total_refs                  7053867                       # Total number of references to valid blocks.
system.cpu.dcache.warmup_cycle           505756855000                       # Cycle when the warmup percentage was hit.
system.cpu.dcache.writebacks                    25300                       # number of writebacks
system.cpu.dtb.data_accesses                        0                       # DTB accesses
system.cpu.dtb.data_acv                             0                       # DTB access violations
system.cpu.dtb.data_hits                            0                       # DTB hits
system.cpu.dtb.data_misses                          0                       # DTB misses
system.cpu.dtb.fetch_accesses                       0                       # ITB accesses
system.cpu.dtb.fetch_acv                            0                       # ITB acv
system.cpu.dtb.fetch_hits                           0                       # ITB hits
system.cpu.dtb.fetch_misses                         0                       # ITB misses
system.cpu.dtb.read_accesses                        0                       # DTB read accesses
system.cpu.dtb.read_acv                             0                       # DTB read access violations
system.cpu.dtb.read_hits                            0                       # DTB read hits
system.cpu.dtb.read_misses                          0                       # DTB read misses
system.cpu.dtb.write_accesses                       0                       # DTB write accesses
system.cpu.dtb.write_acv                            0                       # DTB write access violations
system.cpu.dtb.write_hits                           0                       # DTB write hits
system.cpu.dtb.write_misses                         0                       # DTB write misses
system.cpu.icache.ReadReq_accesses           11284491                       # number of ReadReq accesses(hits+misses)
system.cpu.icache.ReadReq_avg_miss_latency 14173.726245                       # average ReadReq miss latency
system.cpu.icache.ReadReq_avg_mshr_miss_latency 11372.699155                       # average ReadReq mshr miss latency
system.cpu.icache.ReadReq_hits               11208613                       # number of ReadReq hits
system.cpu.icache.ReadReq_miss_latency     1075474000                       # number of ReadReq miss cycles
system.cpu.icache.ReadReq_miss_rate          0.006724                       # miss rate for ReadReq accesses
system.cpu.icache.ReadReq_misses                75878                       # number of ReadReq misses
system.cpu.icache.ReadReq_mshr_hits              3131                       # number of ReadReq MSHR hits
system.cpu.icache.ReadReq_mshr_miss_latency    827307000                       # number of ReadReq MSHR miss cycles
system.cpu.icache.ReadReq_mshr_miss_rate     0.006446                       # mshr miss rate for ReadReq accesses
system.cpu.icache.ReadReq_mshr_misses           72745                       # number of ReadReq MSHR misses
system.cpu.icache.avg_blocked_cycles::no_mshrs     no_value                       # average number of cycles each access was blocked
system.cpu.icache.avg_blocked_cycles::no_targets 63666.666667                       # average number of cycles each access was blocked
system.cpu.icache.avg_refs                 154.076635                       # Average number of references to valid blocks.
system.cpu.icache.blocked::no_mshrs                 0                       # number of cycles access was blocked
system.cpu.icache.blocked::no_targets               3                       # number of cycles access was blocked
system.cpu.icache.blocked_cycles::no_mshrs            0                       # number of cycles access was blocked
system.cpu.icache.blocked_cycles::no_targets       191000                       # number of cycles access was blocked
system.cpu.icache.cache_copies                      0                       # number of cache copies performed
system.cpu.icache.demand_accesses            11284491                       # number of demand (read+write) accesses
system.cpu.icache.demand_avg_miss_latency 14173.726245                       # average overall miss latency
system.cpu.icache.demand_avg_mshr_miss_latency 11372.699155                       # average overall mshr miss latency
system.cpu.icache.demand_hits                11208613                       # number of demand (read+write) hits
system.cpu.icache.demand_miss_latency      1075474000                       # number of demand (read+write) miss cycles
system.cpu.icache.demand_miss_rate           0.006724                       # miss rate for demand accesses
system.cpu.icache.demand_misses                 75878                       # number of demand (read+write) misses
system.cpu.icache.demand_mshr_hits               3131                       # number of demand (read+write) MSHR hits
system.cpu.icache.demand_mshr_miss_latency    827307000                       # number of demand (read+write) MSHR miss cycles
system.cpu.icache.demand_mshr_miss_rate      0.006446                       # mshr miss rate for demand accesses
system.cpu.icache.demand_mshr_misses            72745                       # number of demand (read+write) MSHR misses
system.cpu.icache.fast_writes                       0                       # number of fast writes performed
system.cpu.icache.mshr_cap_events                   0                       # number of times MSHR cap was activated
system.cpu.icache.no_allocate_misses                0                       # Number of misses that were no-allocate
system.cpu.icache.occ_%::0                   0.810109                       # Average percentage of cache occupancy
system.cpu.icache.occ_blocks::0            414.775892                       # Average occupied blocks per context
system.cpu.icache.overall_accesses           11284491                       # number of overall (read+write) accesses
system.cpu.icache.overall_avg_miss_latency 14173.726245                       # average overall miss latency
system.cpu.icache.overall_avg_mshr_miss_latency 11372.699155                       # average overall mshr miss latency
system.cpu.icache.overall_avg_mshr_uncacheable_latency     no_value                       # average overall mshr uncacheable latency
system.cpu.icache.overall_hits               11208613                       # number of overall hits
system.cpu.icache.overall_miss_latency     1075474000                       # number of overall miss cycles
system.cpu.icache.overall_miss_rate          0.006724                       # miss rate for overall accesses
system.cpu.icache.overall_misses                75878                       # number of overall misses
system.cpu.icache.overall_mshr_hits              3131                       # number of overall MSHR hits
system.cpu.icache.overall_mshr_miss_latency    827307000                       # number of overall MSHR miss cycles
system.cpu.icache.overall_mshr_miss_rate     0.006446                       # mshr miss rate for overall accesses
system.cpu.icache.overall_mshr_misses           72745                       # number of overall MSHR misses
system.cpu.icache.overall_mshr_uncacheable_latency            0                       # number of overall MSHR uncacheable cycles
system.cpu.icache.overall_mshr_uncacheable_misses            0                       # number of overall MSHR uncacheable misses
system.cpu.icache.prefetch_accuracy          no_value                       # ratio of good prefetches to total prefetches
system.cpu.icache.prefetch_hits                     0                       # number of prefetched blocks that were accessed
system.cpu.icache.replacements                  72305                       # number of replacements
system.cpu.icache.sampled_refs                  72747                       # Sample count of references to valid blocks.
system.cpu.icache.soft_prefetch_mshr_full            0                       # number of mshr full events for SW prefetching instrutions
system.cpu.icache.tagsinuse                414.775892                       # Cycle average of tags in use
system.cpu.icache.total_refs                 11208613                       # Total number of references to valid blocks.
system.cpu.icache.warmup_cycle                      0                       # Cycle when the warmup percentage was hit.
system.cpu.icache.writebacks                        0                       # number of writebacks
system.cpu.idle_fraction                            0                       # Percentage of idle cycles
system.cpu.itb.data_accesses                        0                       # DTB accesses
system.cpu.itb.data_acv                             0                       # DTB access violations
system.cpu.itb.data_hits                            0                       # DTB hits
system.cpu.itb.data_misses                          0                       # DTB misses
system.cpu.itb.fetch_accesses                       2                       # ITB accesses
system.cpu.itb.fetch_acv                            0                       # ITB acv
system.cpu.itb.fetch_hits                           2                       # ITB hits
system.cpu.itb.fetch_misses                         0                       # ITB misses
system.cpu.itb.read_accesses                        0                       # DTB read accesses
system.cpu.itb.read_acv                             0                       # DTB read access violations
system.cpu.itb.read_hits                            0                       # DTB read hits
system.cpu.itb.read_misses                          0                       # DTB read misses
system.cpu.itb.write_accesses                       0                       # DTB write accesses
system.cpu.itb.write_acv                            0                       # DTB write access violations
system.cpu.itb.write_hits                           0                       # DTB write hits
system.cpu.itb.write_misses                         0                       # DTB write misses
system.cpu.not_idle_fraction                        1                       # Percentage of non-idle cycles
system.cpu.numCycles                                2                       # number of cpu cycles simulated
system.cpu.num_insts                                2                       # Number of instructions executed
system.cpu.num_refs                                 0                       # Number of memory references
system.cpu.workload.PROG:num_syscalls               0                       # Number of system calls
system.l2.HardPFReq_avg_mshr_miss_latency 64344.218368                       # average HardPFReq mshr miss latency
system.l2.HardPFReq_mshr_miss_latency      1137091027                       # number of HardPFReq MSHR miss cycles
system.l2.HardPFReq_mshr_miss_rate                inf                       # mshr miss rate for HardPFReq accesses
system.l2.HardPFReq_mshr_misses                 17672                       # number of HardPFReq MSHR misses
system.l2.ReadExReq_accesses                    15245                       # number of ReadExReq accesses(hits+misses)
system.l2.ReadExReq_avg_miss_latency     118181.357122                       # average ReadExReq miss latency
system.l2.ReadExReq_avg_mshr_miss_latency 102936.267787                       # average ReadExReq mshr miss latency
system.l2.ReadExReq_hits                         1499                       # number of ReadExReq hits
system.l2.ReadExReq_miss_latency           1624520935                       # number of ReadExReq miss cycles
system.l2.ReadExReq_miss_rate                0.901673                       # miss rate for ReadExReq accesses
system.l2.ReadExReq_misses                      13746                       # number of ReadExReq misses
system.l2.ReadExReq_mshr_miss_latency      1414961937                       # number of ReadExReq MSHR miss cycles
system.l2.ReadExReq_mshr_miss_rate           0.901673                       # mshr miss rate for ReadExReq accesses
system.l2.ReadExReq_mshr_misses                 13746                       # number of ReadExReq MSHR misses
system.l2.ReadReq_accesses                      86627                       # number of ReadReq accesses(hits+misses)
system.l2.ReadReq_avg_miss_latency       68412.161150                       # average ReadReq miss latency
system.l2.ReadReq_avg_mshr_miss_latency  52788.464419                       # average ReadReq mshr miss latency
system.l2.ReadReq_hits                          79950                       # number of ReadReq hits
system.l2.ReadReq_miss_latency              456788000                       # number of ReadReq miss cycles
system.l2.ReadReq_miss_rate                  0.077078                       # miss rate for ReadReq accesses
system.l2.ReadReq_misses                         6677                       # number of ReadReq misses
system.l2.ReadReq_mshr_miss_latency         352363000                       # number of ReadReq MSHR miss cycles
system.l2.ReadReq_mshr_miss_rate             0.077054                       # mshr miss rate for ReadReq accesses
system.l2.ReadReq_mshr_misses                    6675                       # number of ReadReq MSHR misses
system.l2.UpgradeReq_accesses                   11023                       # number of UpgradeReq accesses(hits+misses)
system.l2.UpgradeReq_avg_miss_latency    60198.550213                       # average UpgradeReq miss latency
system.l2.UpgradeReq_avg_mshr_miss_latency 44666.981856                       # average UpgradeReq mshr miss latency
system.l2.UpgradeReq_miss_latency           663568619                       # number of UpgradeReq miss cycles
system.l2.UpgradeReq_miss_rate                      1                       # miss rate for UpgradeReq accesses
system.l2.UpgradeReq_misses                     11023                       # number of UpgradeReq misses
system.l2.UpgradeReq_mshr_miss_latency      492364141                       # number of UpgradeReq MSHR miss cycles
system.l2.UpgradeReq_mshr_miss_rate                 1                       # mshr miss rate for UpgradeReq accesses
system.l2.UpgradeReq_mshr_misses                11023                       # number of UpgradeReq MSHR misses
system.l2.Writeback_accesses                    25300                       # number of Writeback accesses(hits+misses)
system.l2.Writeback_hits                        25300                       # number of Writeback hits
system.l2.avg_blocked_cycles::no_mshrs       no_value                       # average number of cycles each access was blocked
system.l2.avg_blocked_cycles::no_targets     no_value                       # average number of cycles each access was blocked
system.l2.avg_refs                           5.605812                       # Average number of references to valid blocks.
system.l2.blocked::no_mshrs                         0                       # number of cycles access was blocked
system.l2.blocked::no_targets                       0                       # number of cycles access was blocked
system.l2.blocked_cycles::no_mshrs                  0                       # number of cycles access was blocked
system.l2.blocked_cycles::no_targets                0                       # number of cycles access was blocked
system.l2.cache_copies                              0                       # number of cache copies performed
system.l2.demand_accesses                      101872                       # number of demand (read+write) accesses
system.l2.demand_avg_miss_latency        101910.049209                       # average overall miss latency
system.l2.demand_avg_mshr_miss_latency   86544.485432                       # average overall mshr miss latency
system.l2.demand_hits                           81449                       # number of demand (read+write) hits
system.l2.demand_miss_latency              2081308935                       # number of demand (read+write) miss cycles
system.l2.demand_miss_rate                   0.200477                       # miss rate for demand accesses
system.l2.demand_misses                         20423                       # number of demand (read+write) misses
system.l2.demand_mshr_hits                          0                       # number of demand (read+write) MSHR hits
system.l2.demand_mshr_miss_latency         1767324937                       # number of demand (read+write) MSHR miss cycles
system.l2.demand_mshr_miss_rate              0.200457                       # mshr miss rate for demand accesses
system.l2.demand_mshr_misses                    20421                       # number of demand (read+write) MSHR misses
system.l2.fast_writes                               0                       # number of fast writes performed
system.l2.mshr_cap_events                           0                       # number of times MSHR cap was activated
system.l2.no_allocate_misses                        0                       # Number of misses that were no-allocate
system.l2.occ_%::0                           0.249879                       # Average percentage of cache occupancy
system.l2.occ_%::1                           0.069131                       # Average percentage of cache occupancy
system.l2.occ_blocks::0                   4094.020410                       # Average occupied blocks per context
system.l2.occ_blocks::1                   1132.649457                       # Average occupied blocks per context
system.l2.overall_accesses                     101872                       # number of overall (read+write) accesses
system.l2.overall_avg_miss_latency       101910.049209                       # average overall miss latency
system.l2.overall_avg_mshr_miss_latency  76245.398472                       # average overall mshr miss latency
system.l2.overall_avg_mshr_uncacheable_latency     no_value                       # average overall mshr uncacheable latency
system.l2.overall_hits                          81449                       # number of overall hits
system.l2.overall_miss_latency             2081308935                       # number of overall miss cycles
system.l2.overall_miss_rate                  0.200477                       # miss rate for overall accesses
system.l2.overall_misses                        20423                       # number of overall misses
system.l2.overall_mshr_hits                         0                       # number of overall MSHR hits
system.l2.overall_mshr_miss_latency        2904415964                       # number of overall MSHR miss cycles
system.l2.overall_mshr_miss_rate             0.373930                       # mshr miss rate for overall accesses
system.l2.overall_mshr_misses                   38093                       # number of overall MSHR misses
system.l2.overall_mshr_uncacheable_latency            0                       # number of overall MSHR uncacheable cycles
system.l2.overall_mshr_uncacheable_misses            0                       # number of overall MSHR uncacheable misses
system.l2.prefetch_accuracy                  0.945224                       # ratio of good prefetches to total prefetches
system.l2.prefetch_hits                         16704                       # number of prefetched blocks that were accessed
system.l2.prefetcher.num_hwpf_already_in_prefetcher        35104                       # number of hwpf that were already in the prefetch queue
system.l2.prefetcher.num_hwpf_evicted             124                       # number of hwpf removed due to no buffer left
system.l2.prefetcher.num_hwpf_identified        56942                       # number of hwpf identified
system.l2.prefetcher.num_hwpf_issued            21663                       # number of hwpf issued
system.l2.prefetcher.num_hwpf_removed_MSHR_hit           51                       # number of hwpf removed because MSHR allocated
system.l2.prefetcher.num_hwpf_span_page             0                       # number of hwpf spanning a virtual page
system.l2.prefetcher.num_hwpf_squashed_from_miss            0                       # number of hwpf that got squashed due to a miss aborting calculation time
system.l2.replacements                           9215                       # number of replacements
system.l2.sampled_refs                          17413                       # Sample count of references to valid blocks.
system.l2.soft_prefetch_mshr_full                   0                       # number of mshr full events for SW prefetching instrutions
system.l2.tagsinuse                       5226.669866                       # Cycle average of tags in use
system.l2.total_refs                            97614                       # Total number of references to valid blocks.
system.l2.warmup_cycle                              0                       # Cycle when the warmup percentage was hit.
system.l2.writebacks                             8797                       # number of writebacks
system.switch_cpus.dtb.data_accesses          3533281                       # DTB accesses
system.switch_cpus.dtb.data_acv                     0                       # DTB access violations
system.switch_cpus.dtb.data_hits              3533187                       # DTB hits
system.switch_cpus.dtb.data_misses                 94                       # DTB misses
system.switch_cpus.dtb.fetch_accesses               0                       # ITB accesses
system.switch_cpus.dtb.fetch_acv                    0                       # ITB acv
system.switch_cpus.dtb.fetch_hits                   0                       # ITB hits
system.switch_cpus.dtb.fetch_misses                 0                       # ITB misses
system.switch_cpus.dtb.read_accesses          2118869                       # DTB read accesses
system.switch_cpus.dtb.read_acv                     0                       # DTB read access violations
system.switch_cpus.dtb.read_hits              2118830                       # DTB read hits
system.switch_cpus.dtb.read_misses                 39                       # DTB read misses
system.switch_cpus.dtb.write_accesses         1414412                       # DTB write accesses
system.switch_cpus.dtb.write_acv                    0                       # DTB write access violations
system.switch_cpus.dtb.write_hits             1414357                       # DTB write hits
system.switch_cpus.dtb.write_misses                55                       # DTB write misses
system.switch_cpus.idle_fraction                    1                       # Percentage of idle cycles
system.switch_cpus.itb.data_accesses                0                       # DTB accesses
system.switch_cpus.itb.data_acv                     0                       # DTB access violations
system.switch_cpus.itb.data_hits                    0                       # DTB hits
system.switch_cpus.itb.data_misses                  0                       # DTB misses
system.switch_cpus.itb.fetch_accesses        10000112                       # ITB accesses
system.switch_cpus.itb.fetch_acv                    0                       # ITB acv
system.switch_cpus.itb.fetch_hits            10000095                       # ITB hits
system.switch_cpus.itb.fetch_misses                17                       # ITB misses
system.switch_cpus.itb.read_accesses                0                       # DTB read accesses
system.switch_cpus.itb.read_acv                     0                       # DTB read access violations
system.switch_cpus.itb.read_hits                    0                       # DTB read hits
system.switch_cpus.itb.read_misses                  0                       # DTB read misses
system.switch_cpus.itb.write_accesses               0                       # DTB write accesses
system.switch_cpus.itb.write_acv                    0                       # DTB write access violations
system.switch_cpus.itb.write_hits                   0                       # DTB write hits
system.switch_cpus.itb.write_misses                 0                       # DTB write misses
system.switch_cpus.not_idle_fraction                0                       # Percentage of non-idle cycles
system.switch_cpus.numCycles                 30174451                       # number of cpu cycles simulated
system.switch_cpus.num_insts                 10000001                       # Number of instructions executed
system.switch_cpus.num_refs                   3723635                       # Number of memory references
system.switch_cpus_1.BPredUnit.BTBCorrect            0                       # Number of correct BTB predictions (this stat may not work properly.
system.switch_cpus_1.BPredUnit.BTBHits         268407                       # Number of BTB hits
system.switch_cpus_1.BPredUnit.BTBLookups       443820                       # Number of BTB lookups
system.switch_cpus_1.BPredUnit.RASInCorrect            7                       # Number of incorrect RAS predictions.
system.switch_cpus_1.BPredUnit.condIncorrect        41140                       # Number of conditional branches incorrect
system.switch_cpus_1.BPredUnit.condPredicted       498834                       # Number of conditional branches predicted
system.switch_cpus_1.BPredUnit.lookups         516433                       # Number of BP lookups
system.switch_cpus_1.BPredUnit.usedRAS           5825                       # Number of times the RAS was used to get a target.
system.switch_cpus_1.commit.COM:branches       363562                       # Number of branches committed
system.switch_cpus_1.commit.COM:bw_lim_events       373326                       # number cycles where commit BW limit reached
system.switch_cpus_1.commit.COM:bw_limited            0                       # number of insts not committed due to BW limits
system.switch_cpus_1.commit.COM:committed_per_cycle::samples      6328395                       # Number of insts commited each cycle
system.switch_cpus_1.commit.COM:committed_per_cycle::mean     1.606337                       # Number of insts commited each cycle
system.switch_cpus_1.commit.COM:committed_per_cycle::stdev     2.377835                       # Number of insts commited each cycle
system.switch_cpus_1.commit.COM:committed_per_cycle::underflows            0      0.00%      0.00% # Number of insts commited each cycle
system.switch_cpus_1.commit.COM:committed_per_cycle::0      3380335     53.42%     53.42% # Number of insts commited each cycle
system.switch_cpus_1.commit.COM:committed_per_cycle::1       903326     14.27%     67.69% # Number of insts commited each cycle
system.switch_cpus_1.commit.COM:committed_per_cycle::2       414889      6.56%     74.25% # Number of insts commited each cycle
system.switch_cpus_1.commit.COM:committed_per_cycle::3       402582      6.36%     80.61% # Number of insts commited each cycle
system.switch_cpus_1.commit.COM:committed_per_cycle::4       403181      6.37%     86.98% # Number of insts commited each cycle
system.switch_cpus_1.commit.COM:committed_per_cycle::5       191477      3.03%     90.00% # Number of insts commited each cycle
system.switch_cpus_1.commit.COM:committed_per_cycle::6       146988      2.32%     92.33% # Number of insts commited each cycle
system.switch_cpus_1.commit.COM:committed_per_cycle::7       112291      1.77%     94.10% # Number of insts commited each cycle
system.switch_cpus_1.commit.COM:committed_per_cycle::8       373326      5.90%    100.00% # Number of insts commited each cycle
system.switch_cpus_1.commit.COM:committed_per_cycle::overflows            0      0.00%    100.00% # Number of insts commited each cycle
system.switch_cpus_1.commit.COM:committed_per_cycle::min_value            0                       # Number of insts commited each cycle
system.switch_cpus_1.commit.COM:committed_per_cycle::max_value            8                       # Number of insts commited each cycle
system.switch_cpus_1.commit.COM:committed_per_cycle::total      6328395                       # Number of insts commited each cycle
system.switch_cpus_1.commit.COM:count        10165532                       # Number of instructions committed
system.switch_cpus_1.commit.COM:loads         2313029                       # Number of loads committed
system.switch_cpus_1.commit.COM:membars             0                       # Number of memory barriers committed
system.switch_cpus_1.commit.COM:refs          3782914                       # Number of memory references committed
system.switch_cpus_1.commit.COM:swp_count            0                       # Number of s/w prefetches committed
system.switch_cpus_1.commit.branchMispredicts        41111                       # The number of times a branch was mispredicted
system.switch_cpus_1.commit.commitCommittedInsts     10165532                       # The number of committed instructions
system.switch_cpus_1.commit.commitSquashedInsts      1378334                       # The number of squashed insts skipped by commit
system.switch_cpus_1.committedInsts          10000007                       # Number of Instructions Simulated
system.switch_cpus_1.committedInsts_total     10000007                       # Number of Instructions Simulated
system.switch_cpus_1.cpi                     0.676047                       # CPI: Cycles Per Instruction
system.switch_cpus_1.cpi_total               0.676047                       # CPI: Total CPI of All Threads
system.switch_cpus_1.decode.DECODE:BlockedCycles       976861                       # Number of cycles decode is blocked
system.switch_cpus_1.decode.DECODE:BranchMispred           31                       # Number of times decode detected a branch misprediction
system.switch_cpus_1.decode.DECODE:BranchResolved        11713                       # Number of times decode resolved a branch
system.switch_cpus_1.decode.DECODE:DecodedInsts     13535070                       # Number of instructions handled by decode
system.switch_cpus_1.decode.DECODE:IdleCycles      3403243                       # Number of cycles decode is idle
system.switch_cpus_1.decode.DECODE:RunCycles      1936074                       # Number of cycles decode is running
system.switch_cpus_1.decode.DECODE:SquashCycles       258777                       # Number of cycles decode is squashing
system.switch_cpus_1.decode.DECODE:SquashedInsts           83                       # Number of squashed instructions handled by decode
system.switch_cpus_1.decode.DECODE:UnblockCycles        12216                       # Number of cycles decode is unblocking
system.switch_cpus_1.dtb.data_accesses        4093555                       # DTB accesses
system.switch_cpus_1.dtb.data_acv                   0                       # DTB access violations
system.switch_cpus_1.dtb.data_hits            4091875                       # DTB hits
system.switch_cpus_1.dtb.data_misses             1680                       # DTB misses
system.switch_cpus_1.dtb.fetch_accesses             0                       # ITB accesses
system.switch_cpus_1.dtb.fetch_acv                  0                       # ITB acv
system.switch_cpus_1.dtb.fetch_hits                 0                       # ITB hits
system.switch_cpus_1.dtb.fetch_misses               0                       # ITB misses
system.switch_cpus_1.dtb.read_accesses        2496418                       # DTB read accesses
system.switch_cpus_1.dtb.read_acv                   0                       # DTB read access violations
system.switch_cpus_1.dtb.read_hits            2496124                       # DTB read hits
system.switch_cpus_1.dtb.read_misses              294                       # DTB read misses
system.switch_cpus_1.dtb.write_accesses       1597137                       # DTB write accesses
system.switch_cpus_1.dtb.write_acv                  0                       # DTB write access violations
system.switch_cpus_1.dtb.write_hits           1595751                       # DTB write hits
system.switch_cpus_1.dtb.write_misses            1386                       # DTB write misses
system.switch_cpus_1.fetch.Branches            516433                       # Number of branches that fetch encountered
system.switch_cpus_1.fetch.CacheLines         1284394                       # Number of cache lines fetched
system.switch_cpus_1.fetch.Cycles             3258469                       # Number of cycles fetch has run and was not squashing or blocked
system.switch_cpus_1.fetch.IcacheSquashes        61697                       # Number of outstanding Icache misses that were squashed
system.switch_cpus_1.fetch.Insts             13711043                       # Number of instructions fetch has processed
system.switch_cpus_1.fetch.SquashCycles        169575                       # Number of cycles fetch has spent squashing
system.switch_cpus_1.fetch.branchRate        0.076390                       # Number of branch fetches per cycle
system.switch_cpus_1.fetch.icacheStallCycles      1284394                       # Number of cycles fetch is stalled on an Icache miss
system.switch_cpus_1.fetch.predictedBranches       274232                       # Number of branches that fetch has predicted taken
system.switch_cpus_1.fetch.rate              2.028117                       # Number of inst fetches per cycle
system.switch_cpus_1.fetch.rateDist::samples      6587172                       # Number of instructions fetched each cycle (Total)
system.switch_cpus_1.fetch.rateDist::mean     2.081476                       # Number of instructions fetched each cycle (Total)
system.switch_cpus_1.fetch.rateDist::stdev     3.360028                       # Number of instructions fetched each cycle (Total)
system.switch_cpus_1.fetch.rateDist::underflows            0      0.00%      0.00% # Number of instructions fetched each cycle (Total)
system.switch_cpus_1.fetch.rateDist::0        4613115     70.03%     70.03% # Number of instructions fetched each cycle (Total)
system.switch_cpus_1.fetch.rateDist::1          39264      0.60%     70.63% # Number of instructions fetched each cycle (Total)
system.switch_cpus_1.fetch.rateDist::2          76575      1.16%     71.79% # Number of instructions fetched each cycle (Total)
system.switch_cpus_1.fetch.rateDist::3          63874      0.97%     72.76% # Number of instructions fetched each cycle (Total)
system.switch_cpus_1.fetch.rateDist::4         173860      2.64%     75.40% # Number of instructions fetched each cycle (Total)
system.switch_cpus_1.fetch.rateDist::5          61894      0.94%     76.34% # Number of instructions fetched each cycle (Total)
system.switch_cpus_1.fetch.rateDist::6          53514      0.81%     77.15% # Number of instructions fetched each cycle (Total)
system.switch_cpus_1.fetch.rateDist::7          39595      0.60%     77.75% # Number of instructions fetched each cycle (Total)
system.switch_cpus_1.fetch.rateDist::8        1465481     22.25%    100.00% # Number of instructions fetched each cycle (Total)
system.switch_cpus_1.fetch.rateDist::overflows            0      0.00%    100.00% # Number of instructions fetched each cycle (Total)
system.switch_cpus_1.fetch.rateDist::min_value            0                       # Number of instructions fetched each cycle (Total)
system.switch_cpus_1.fetch.rateDist::max_value            8                       # Number of instructions fetched each cycle (Total)
system.switch_cpus_1.fetch.rateDist::total      6587172                       # Number of instructions fetched each cycle (Total)
system.switch_cpus_1.idleCycles                173307                       # Total number of cycles that the CPU has spent unscheduled due to idling
system.switch_cpus_1.iew.EXEC:branches         381474                       # Number of branches executed
system.switch_cpus_1.iew.EXEC:nop              179794                       # number of nop insts executed
system.switch_cpus_1.iew.EXEC:rate           1.617239                       # Inst execution rate
system.switch_cpus_1.iew.EXEC:refs            4319350                       # number of memory reference insts executed
system.switch_cpus_1.iew.EXEC:stores          1650124                       # Number of stores executed
system.switch_cpus_1.iew.EXEC:swp                   0                       # number of swp insts executed
system.switch_cpus_1.iew.WB:consumers         7585460                       # num instructions consuming a value
system.switch_cpus_1.iew.WB:count            10593550                       # cumulative count of insts written-back
system.switch_cpus_1.iew.WB:fanout           0.753709                       # average fanout of values written-back
system.switch_cpus_1.iew.WB:penalized               0                       # number of instrctions required to write to 'other' IQ
system.switch_cpus_1.iew.WB:penalized_rate            0                       # fraction of instructions written-back that wrote to 'other' IQ
system.switch_cpus_1.iew.WB:producers         5717227                       # num instructions producing a value
system.switch_cpus_1.iew.WB:rate             1.566982                       # insts written-back per cycle
system.switch_cpus_1.iew.WB:sent             10599314                       # cumulative count of insts sent to commit
system.switch_cpus_1.iew.branchMispredicts        43138                       # Number of branch mispredicts detected at execute
system.switch_cpus_1.iew.iewBlockCycles         65171                       # Number of cycles IEW is blocking
system.switch_cpus_1.iew.iewDispLoadInsts      2747978                       # Number of dispatched load instructions
system.switch_cpus_1.iew.iewDispNonSpecInsts            0                       # Number of dispatched non-speculative instructions
system.switch_cpus_1.iew.iewDispSquashedInsts       454515                       # Number of squashed instructions skipped by dispatch
system.switch_cpus_1.iew.iewDispStoreInsts      1851703                       # Number of dispatched store instructions
system.switch_cpus_1.iew.iewDispatchedInsts     11546022                       # Number of instructions dispatched to IQ
system.switch_cpus_1.iew.iewExecLoadInsts      2669226                       # Number of load instructions executed
system.switch_cpus_1.iew.iewExecSquashedInsts       137176                       # Number of squashed instructions skipped in execute
system.switch_cpus_1.iew.iewExecutedInsts     10933311                       # Number of executed instructions
system.switch_cpus_1.iew.iewIQFullEvents         1466                       # Number of times the IQ has become full, causing a stall
system.switch_cpus_1.iew.iewIdleCycles              0                       # Number of cycles IEW is idle
system.switch_cpus_1.iew.iewLSQFullEvents          156                       # Number of times the LSQ has become full, causing a stall
system.switch_cpus_1.iew.iewSquashCycles       258777                       # Number of cycles IEW is squashing
system.switch_cpus_1.iew.iewUnblockCycles         4409                       # Number of cycles IEW is unblocking
system.switch_cpus_1.iew.lsq.thread.0.blockedLoads            0                       # Number of blocked loads due to partial load-store forwarding
system.switch_cpus_1.iew.lsq.thread.0.cacheBlocked       326731                       # Number of times an access to memory failed due to the cache being blocked
system.switch_cpus_1.iew.lsq.thread.0.forwLoads        36666                       # Number of loads that had data forwarded from stores
system.switch_cpus_1.iew.lsq.thread.0.ignoredResponses            8                       # Number of memory responses ignored because the instruction is squashed
system.switch_cpus_1.iew.lsq.thread.0.invAddrLoads            0                       # Number of loads ignored due to an invalid address
system.switch_cpus_1.iew.lsq.thread.0.invAddrSwpfs            0                       # Number of software prefetches ignored due to an invalid address
system.switch_cpus_1.iew.lsq.thread.0.memOrderViolation         3373                       # Number of memory ordering violations
system.switch_cpus_1.iew.lsq.thread.0.rescheduledLoads            0                       # Number of loads that were rescheduled
system.switch_cpus_1.iew.lsq.thread.0.squashedLoads       434925                       # Number of loads squashed
system.switch_cpus_1.iew.lsq.thread.0.squashedStores       381807                       # Number of stores squashed
system.switch_cpus_1.iew.memOrderViolationEvents         3373                       # Number of memory order violations
system.switch_cpus_1.iew.predictedNotTakenIncorrect         3382                       # Number of branches that were predicted not taken incorrectly
system.switch_cpus_1.iew.predictedTakenIncorrect        39756                       # Number of branches that were predicted taken incorrectly
system.switch_cpus_1.ipc                     1.479186                       # IPC: Instructions Per Cycle
system.switch_cpus_1.ipc_total               1.479186                       # IPC: Total IPC of All Threads
system.switch_cpus_1.iq.ISSUE:FU_type_0::No_OpClass            0      0.00%      0.00% # Type of FU issued
system.switch_cpus_1.iq.ISSUE:FU_type_0::IntAlu      4103007     37.06%     37.06% # Type of FU issued
system.switch_cpus_1.iq.ISSUE:FU_type_0::IntMult       389139      3.52%     40.58% # Type of FU issued
system.switch_cpus_1.iq.ISSUE:FU_type_0::IntDiv            0      0.00%     40.58% # Type of FU issued
system.switch_cpus_1.iq.ISSUE:FU_type_0::FloatAdd      1331498     12.03%     52.61% # Type of FU issued
system.switch_cpus_1.iq.ISSUE:FU_type_0::FloatCmp            0      0.00%     52.61% # Type of FU issued
system.switch_cpus_1.iq.ISSUE:FU_type_0::FloatCvt        18122      0.16%     52.77% # Type of FU issued
system.switch_cpus_1.iq.ISSUE:FU_type_0::FloatMult       851045      7.69%     60.46% # Type of FU issued
system.switch_cpus_1.iq.ISSUE:FU_type_0::FloatDiv         6162      0.06%     60.51% # Type of FU issued
system.switch_cpus_1.iq.ISSUE:FU_type_0::FloatSqrt            0      0.00%     60.51% # Type of FU issued
system.switch_cpus_1.iq.ISSUE:FU_type_0::MemRead      2700871     24.40%     84.91% # Type of FU issued
system.switch_cpus_1.iq.ISSUE:FU_type_0::MemWrite      1670644     15.09%    100.00% # Type of FU issued
system.switch_cpus_1.iq.ISSUE:FU_type_0::IprAccess            0      0.00%    100.00% # Type of FU issued
system.switch_cpus_1.iq.ISSUE:FU_type_0::InstPrefetch            0      0.00%    100.00% # Type of FU issued
system.switch_cpus_1.iq.ISSUE:FU_type_0::total     11070488                       # Type of FU issued
system.switch_cpus_1.iq.ISSUE:fu_busy_cnt       390879                       # FU busy when requested
system.switch_cpus_1.iq.ISSUE:fu_busy_rate     0.035308                       # FU busy rate (busy events/executed inst)
system.switch_cpus_1.iq.ISSUE:fu_full::No_OpClass            0      0.00%      0.00% # attempts to use FU when none available
system.switch_cpus_1.iq.ISSUE:fu_full::IntAlu        51520     13.18%     13.18% # attempts to use FU when none available
system.switch_cpus_1.iq.ISSUE:fu_full::IntMult        52744     13.49%     26.67% # attempts to use FU when none available
system.switch_cpus_1.iq.ISSUE:fu_full::IntDiv            0      0.00%     26.67% # attempts to use FU when none available
system.switch_cpus_1.iq.ISSUE:fu_full::FloatAdd        16456      4.21%     30.88% # attempts to use FU when none available
system.switch_cpus_1.iq.ISSUE:fu_full::FloatCmp            0      0.00%     30.88% # attempts to use FU when none available
system.switch_cpus_1.iq.ISSUE:fu_full::FloatCvt            0      0.00%     30.88% # attempts to use FU when none available
system.switch_cpus_1.iq.ISSUE:fu_full::FloatMult        96979     24.81%     55.69% # attempts to use FU when none available
system.switch_cpus_1.iq.ISSUE:fu_full::FloatDiv            0      0.00%     55.69% # attempts to use FU when none available
system.switch_cpus_1.iq.ISSUE:fu_full::FloatSqrt            0      0.00%     55.69% # attempts to use FU when none available
system.switch_cpus_1.iq.ISSUE:fu_full::MemRead       120917     30.93%     86.63% # attempts to use FU when none available
system.switch_cpus_1.iq.ISSUE:fu_full::MemWrite        52263     13.37%    100.00% # attempts to use FU when none available
system.switch_cpus_1.iq.ISSUE:fu_full::IprAccess            0      0.00%    100.00% # attempts to use FU when none available
system.switch_cpus_1.iq.ISSUE:fu_full::InstPrefetch            0      0.00%    100.00% # attempts to use FU when none available
system.switch_cpus_1.iq.ISSUE:issued_per_cycle::samples      6587172                       # Number of insts issued each cycle
system.switch_cpus_1.iq.ISSUE:issued_per_cycle::mean     1.680613                       # Number of insts issued each cycle
system.switch_cpus_1.iq.ISSUE:issued_per_cycle::stdev     2.011370                       # Number of insts issued each cycle
system.switch_cpus_1.iq.ISSUE:issued_per_cycle::underflows            0      0.00%      0.00% # Number of insts issued each cycle
system.switch_cpus_1.iq.ISSUE:issued_per_cycle::0      2921440     44.35%     44.35% # Number of insts issued each cycle
system.switch_cpus_1.iq.ISSUE:issued_per_cycle::1      1005466     15.26%     59.61% # Number of insts issued each cycle
system.switch_cpus_1.iq.ISSUE:issued_per_cycle::2       672667     10.21%     69.83% # Number of insts issued each cycle
system.switch_cpus_1.iq.ISSUE:issued_per_cycle::3       589016      8.94%     78.77% # Number of insts issued each cycle
system.switch_cpus_1.iq.ISSUE:issued_per_cycle::4       634603      9.63%     88.40% # Number of insts issued each cycle
system.switch_cpus_1.iq.ISSUE:issued_per_cycle::5       360073      5.47%     93.87% # Number of insts issued each cycle
system.switch_cpus_1.iq.ISSUE:issued_per_cycle::6       256217      3.89%     97.76% # Number of insts issued each cycle
system.switch_cpus_1.iq.ISSUE:issued_per_cycle::7       104959      1.59%     99.35% # Number of insts issued each cycle
system.switch_cpus_1.iq.ISSUE:issued_per_cycle::8        42731      0.65%    100.00% # Number of insts issued each cycle
system.switch_cpus_1.iq.ISSUE:issued_per_cycle::overflows            0      0.00%    100.00% # Number of insts issued each cycle
system.switch_cpus_1.iq.ISSUE:issued_per_cycle::min_value            0                       # Number of insts issued each cycle
system.switch_cpus_1.iq.ISSUE:issued_per_cycle::max_value            8                       # Number of insts issued each cycle
system.switch_cpus_1.iq.ISSUE:issued_per_cycle::total      6587172                       # Number of insts issued each cycle
system.switch_cpus_1.iq.ISSUE:rate           1.637530                       # Inst issue rate
system.switch_cpus_1.iq.iqInstsAdded         11366228                       # Number of instructions added to the IQ (excludes non-spec)
system.switch_cpus_1.iq.iqInstsIssued        11070488                       # Number of instructions issued
system.switch_cpus_1.iq.iqSquashedInstsExamined      1366021                       # Number of squashed instructions iterated over during squash; mainly for profiling
system.switch_cpus_1.iq.iqSquashedInstsIssued        38693                       # Number of squashed instructions issued
system.switch_cpus_1.iq.iqSquashedOperandsExamined       908234                       # Number of squashed operands that are examined and possibly removed from graph
system.switch_cpus_1.itb.data_accesses              0                       # DTB accesses
system.switch_cpus_1.itb.data_acv                   0                       # DTB access violations
system.switch_cpus_1.itb.data_hits                  0                       # DTB hits
system.switch_cpus_1.itb.data_misses                0                       # DTB misses
system.switch_cpus_1.itb.fetch_accesses       1284415                       # ITB accesses
system.switch_cpus_1.itb.fetch_acv                  0                       # ITB acv
system.switch_cpus_1.itb.fetch_hits           1284394                       # ITB hits
system.switch_cpus_1.itb.fetch_misses              21                       # ITB misses
system.switch_cpus_1.itb.read_accesses              0                       # DTB read accesses
system.switch_cpus_1.itb.read_acv                   0                       # DTB read access violations
system.switch_cpus_1.itb.read_hits                  0                       # DTB read hits
system.switch_cpus_1.itb.read_misses                0                       # DTB read misses
system.switch_cpus_1.itb.write_accesses             0                       # DTB write accesses
system.switch_cpus_1.itb.write_acv                  0                       # DTB write access violations
system.switch_cpus_1.itb.write_hits                 0                       # DTB write hits
system.switch_cpus_1.itb.write_misses               0                       # DTB write misses
system.switch_cpus_1.memDep0.conflictingLoads       612170                       # Number of conflicting loads.
system.switch_cpus_1.memDep0.conflictingStores       454257                       # Number of conflicting stores.
system.switch_cpus_1.memDep0.insertedLoads      2747978                       # Number of loads inserted to the mem dependence unit.
system.switch_cpus_1.memDep0.insertedStores      1851703                       # Number of stores inserted to the mem dependence unit.
system.switch_cpus_1.numCycles                6760479                       # number of cpu cycles simulated
system.switch_cpus_1.rename.RENAME:BlockCycles       486391                       # Number of cycles rename is blocking
system.switch_cpus_1.rename.RENAME:CommittedMaps      8012480                       # Number of HB maps that are committed
system.switch_cpus_1.rename.RENAME:IQFullEvents        58119                       # Number of times rename has blocked due to IQ full
system.switch_cpus_1.rename.RENAME:IdleCycles      3528376                       # Number of cycles rename is idle
system.switch_cpus_1.rename.RENAME:LSQFullEvents       433382                       # Number of times rename has blocked due to LSQ full
system.switch_cpus_1.rename.RENAME:ROBFullEvents          174                       # Number of times rename has blocked due to ROB full
system.switch_cpus_1.rename.RENAME:RenameLookups     19776777                       # Number of register rename lookups that rename has made
system.switch_cpus_1.rename.RENAME:RenamedInsts     13073782                       # Number of instructions processed by rename
system.switch_cpus_1.rename.RENAME:RenamedOperands      9920751                       # Number of destination operands rename has renamed
system.switch_cpus_1.rename.RENAME:RunCycles      1819481                       # Number of cycles rename is running
system.switch_cpus_1.rename.RENAME:SquashCycles       258777                       # Number of cycles rename is squashing
system.switch_cpus_1.rename.RENAME:UnblockCycles       494146                       # Number of cycles rename is unblocking
system.switch_cpus_1.rename.RENAME:UndoneMaps      1908214                       # Number of HB maps that are undone due to squashing
system.switch_cpus_1.rename.RENAME:serializeStallCycles            0                       # count of cycles rename stalled for serializing inst
system.switch_cpus_1.rename.RENAME:serializingInsts            0                       # count of serializing insts renamed
system.switch_cpus_1.rename.RENAME:skidInsts       954970                       # count of insts added to the skid buffer
system.switch_cpus_1.rename.RENAME:tempSerializingInsts            0                       # count of temporary serializing insts renamed
system.switch_cpus_1.timesIdled                 28220                       # Number of times that the entire CPU went into an idle state and unscheduled itself

---------- End Simulation Statistics   ----------
