
---------- Begin Simulation Statistics ----------
host_inst_rate                                 388239                       # Simulator instruction rate (inst/s)
host_mem_usage                                 402748                       # Number of bytes of host memory used
host_seconds                                    51.51                       # Real time elapsed on the host
host_tick_rate                              324712756                       # Simulator tick rate (ticks/s)
sim_freq                                 1000000000000                       # Frequency of simulated ticks
sim_insts                                    20000003                       # Number of instructions simulated
sim_seconds                                  0.016728                       # Number of seconds simulated
sim_ticks                                 16727538000                       # Number of ticks simulated
system.cpu.dcache.ReadReq_accesses            3146585                       # number of ReadReq accesses(hits+misses)
system.cpu.dcache.ReadReq_avg_miss_latency 20005.470877                       # average ReadReq miss latency
system.cpu.dcache.ReadReq_avg_mshr_miss_latency 15614.664864                       # average ReadReq mshr miss latency
system.cpu.dcache.ReadReq_hits                3086357                       # number of ReadReq hits
system.cpu.dcache.ReadReq_miss_latency     1204889500                       # number of ReadReq miss cycles
system.cpu.dcache.ReadReq_miss_rate          0.019141                       # miss rate for ReadReq accesses
system.cpu.dcache.ReadReq_misses                60228                       # number of ReadReq misses
system.cpu.dcache.ReadReq_mshr_hits              4011                       # number of ReadReq MSHR hits
system.cpu.dcache.ReadReq_mshr_miss_latency    877794000                       # number of ReadReq MSHR miss cycles
system.cpu.dcache.ReadReq_mshr_miss_rate     0.017866                       # mshr miss rate for ReadReq accesses
system.cpu.dcache.ReadReq_mshr_misses           56216                       # number of ReadReq MSHR misses
system.cpu.dcache.WriteReq_accesses           2942187                       # number of WriteReq accesses(hits+misses)
system.cpu.dcache.WriteReq_avg_miss_latency 23361.605107                       # average WriteReq miss latency
system.cpu.dcache.WriteReq_avg_mshr_miss_latency 20196.701721                       # average WriteReq mshr miss latency
system.cpu.dcache.WriteReq_hits               2939994                       # number of WriteReq hits
system.cpu.dcache.WriteReq_miss_latency      51232000                       # number of WriteReq miss cycles
system.cpu.dcache.WriteReq_miss_rate         0.000745                       # miss rate for WriteReq accesses
system.cpu.dcache.WriteReq_misses                2193                       # number of WriteReq misses
system.cpu.dcache.WriteReq_mshr_hits              101                       # number of WriteReq MSHR hits
system.cpu.dcache.WriteReq_mshr_miss_latency     42251500                       # number of WriteReq MSHR miss cycles
system.cpu.dcache.WriteReq_mshr_miss_rate     0.000711                       # mshr miss rate for WriteReq accesses
system.cpu.dcache.WriteReq_mshr_misses           2092                       # number of WriteReq MSHR misses
system.cpu.dcache.avg_blocked_cycles::no_mshrs     no_value                       # average number of cycles each access was blocked
system.cpu.dcache.avg_blocked_cycles::no_targets 22386.836028                       # average number of cycles each access was blocked
system.cpu.dcache.avg_refs                 104.086681                       # Average number of references to valid blocks.
system.cpu.dcache.blocked::no_mshrs                 0                       # number of cycles access was blocked
system.cpu.dcache.blocked::no_targets             866                       # number of cycles access was blocked
system.cpu.dcache.blocked_cycles::no_mshrs            0                       # number of cycles access was blocked
system.cpu.dcache.blocked_cycles::no_targets     19387000                       # number of cycles access was blocked
system.cpu.dcache.cache_copies                      0                       # number of cache copies performed
system.cpu.dcache.demand_accesses             6088772                       # number of demand (read+write) accesses
system.cpu.dcache.demand_avg_miss_latency 20123.379952                       # average overall miss latency
system.cpu.dcache.demand_avg_mshr_miss_latency 15779.061192                       # average overall mshr miss latency
system.cpu.dcache.demand_hits                 6026351                       # number of demand (read+write) hits
system.cpu.dcache.demand_miss_latency      1256121500                       # number of demand (read+write) miss cycles
system.cpu.dcache.demand_miss_rate           0.010252                       # miss rate for demand accesses
system.cpu.dcache.demand_misses                 62421                       # number of demand (read+write) misses
system.cpu.dcache.demand_mshr_hits               4112                       # number of demand (read+write) MSHR hits
system.cpu.dcache.demand_mshr_miss_latency    920045500                       # number of demand (read+write) MSHR miss cycles
system.cpu.dcache.demand_mshr_miss_rate      0.009576                       # mshr miss rate for demand accesses
system.cpu.dcache.demand_mshr_misses            58308                       # number of demand (read+write) MSHR misses
system.cpu.dcache.fast_writes                       0                       # number of fast writes performed
system.cpu.dcache.mshr_cap_events                   0                       # number of times MSHR cap was activated
system.cpu.dcache.no_allocate_misses                0                       # Number of misses that were no-allocate
system.cpu.dcache.occ_%::0                   0.954598                       # Average percentage of cache occupancy
system.cpu.dcache.occ_blocks::0            977.508206                       # Average occupied blocks per context
system.cpu.dcache.overall_accesses            6088772                       # number of overall (read+write) accesses
system.cpu.dcache.overall_avg_miss_latency 20123.379952                       # average overall miss latency
system.cpu.dcache.overall_avg_mshr_miss_latency 15779.061192                       # average overall mshr miss latency
system.cpu.dcache.overall_avg_mshr_uncacheable_latency     no_value                       # average overall mshr uncacheable latency
system.cpu.dcache.overall_hits                6026351                       # number of overall hits
system.cpu.dcache.overall_miss_latency     1256121500                       # number of overall miss cycles
system.cpu.dcache.overall_miss_rate          0.010252                       # miss rate for overall accesses
system.cpu.dcache.overall_misses                62421                       # number of overall misses
system.cpu.dcache.overall_mshr_hits              4112                       # number of overall MSHR hits
system.cpu.dcache.overall_mshr_miss_latency    920045500                       # number of overall MSHR miss cycles
system.cpu.dcache.overall_mshr_miss_rate     0.009576                       # mshr miss rate for overall accesses
system.cpu.dcache.overall_mshr_misses           58308                       # number of overall MSHR misses
system.cpu.dcache.overall_mshr_uncacheable_latency            0                       # number of overall MSHR uncacheable cycles
system.cpu.dcache.overall_mshr_uncacheable_misses            0                       # number of overall MSHR uncacheable misses
system.cpu.dcache.prefetch_accuracy          no_value                       # ratio of good prefetches to total prefetches
system.cpu.dcache.prefetch_hits                     0                       # number of prefetched blocks that were accessed
system.cpu.dcache.replacements                  56878                       # number of replacements
system.cpu.dcache.sampled_refs                  57902                       # Sample count of references to valid blocks.
system.cpu.dcache.soft_prefetch_mshr_full            0                       # number of mshr full events for SW prefetching instrutions
system.cpu.dcache.tagsinuse                977.508206                       # Cycle average of tags in use
system.cpu.dcache.total_refs                  6026827                       # Total number of references to valid blocks.
system.cpu.dcache.warmup_cycle           505436911000                       # Cycle when the warmup percentage was hit.
system.cpu.dcache.writebacks                     2046                       # number of writebacks
system.cpu.dtb.data_accesses                        1                       # DTB accesses
system.cpu.dtb.data_acv                             0                       # DTB access violations
system.cpu.dtb.data_hits                            1                       # DTB hits
system.cpu.dtb.data_misses                          0                       # DTB misses
system.cpu.dtb.fetch_accesses                       0                       # ITB accesses
system.cpu.dtb.fetch_acv                            0                       # ITB acv
system.cpu.dtb.fetch_hits                           0                       # ITB hits
system.cpu.dtb.fetch_misses                         0                       # ITB misses
system.cpu.dtb.read_accesses                        1                       # DTB read accesses
system.cpu.dtb.read_acv                             0                       # DTB read access violations
system.cpu.dtb.read_hits                            1                       # DTB read hits
system.cpu.dtb.read_misses                          0                       # DTB read misses
system.cpu.dtb.write_accesses                       0                       # DTB write accesses
system.cpu.dtb.write_acv                            0                       # DTB write access violations
system.cpu.dtb.write_hits                           0                       # DTB write hits
system.cpu.dtb.write_misses                         0                       # DTB write misses
system.cpu.icache.ReadReq_accesses           11680348                       # number of ReadReq accesses(hits+misses)
system.cpu.icache.ReadReq_avg_miss_latency 52666.666667                       # average ReadReq miss latency
system.cpu.icache.ReadReq_avg_mshr_miss_latency 67071.428571                       # average ReadReq mshr miss latency
system.cpu.icache.ReadReq_hits               11680336                       # number of ReadReq hits
system.cpu.icache.ReadReq_miss_latency         632000                       # number of ReadReq miss cycles
system.cpu.icache.ReadReq_miss_rate          0.000001                       # miss rate for ReadReq accesses
system.cpu.icache.ReadReq_misses                   12                       # number of ReadReq misses
system.cpu.icache.ReadReq_mshr_hits                 4                       # number of ReadReq MSHR hits
system.cpu.icache.ReadReq_mshr_miss_latency       469500                       # number of ReadReq MSHR miss cycles
system.cpu.icache.ReadReq_mshr_miss_rate     0.000001                       # mshr miss rate for ReadReq accesses
system.cpu.icache.ReadReq_mshr_misses               7                       # number of ReadReq MSHR misses
system.cpu.icache.avg_blocked_cycles::no_mshrs     no_value                       # average number of cycles each access was blocked
system.cpu.icache.avg_blocked_cycles::no_targets        21000                       # average number of cycles each access was blocked
system.cpu.icache.avg_refs                    1460042                       # Average number of references to valid blocks.
system.cpu.icache.blocked::no_mshrs                 0                       # number of cycles access was blocked
system.cpu.icache.blocked::no_targets               1                       # number of cycles access was blocked
system.cpu.icache.blocked_cycles::no_mshrs            0                       # number of cycles access was blocked
system.cpu.icache.blocked_cycles::no_targets        21000                       # number of cycles access was blocked
system.cpu.icache.cache_copies                      0                       # number of cache copies performed
system.cpu.icache.demand_accesses            11680348                       # number of demand (read+write) accesses
system.cpu.icache.demand_avg_miss_latency 52666.666667                       # average overall miss latency
system.cpu.icache.demand_avg_mshr_miss_latency 67071.428571                       # average overall mshr miss latency
system.cpu.icache.demand_hits                11680336                       # number of demand (read+write) hits
system.cpu.icache.demand_miss_latency          632000                       # number of demand (read+write) miss cycles
system.cpu.icache.demand_miss_rate           0.000001                       # miss rate for demand accesses
system.cpu.icache.demand_misses                    12                       # number of demand (read+write) misses
system.cpu.icache.demand_mshr_hits                  4                       # number of demand (read+write) MSHR hits
system.cpu.icache.demand_mshr_miss_latency       469500                       # number of demand (read+write) MSHR miss cycles
system.cpu.icache.demand_mshr_miss_rate      0.000001                       # mshr miss rate for demand accesses
system.cpu.icache.demand_mshr_misses                7                       # number of demand (read+write) MSHR misses
system.cpu.icache.fast_writes                       0                       # number of fast writes performed
system.cpu.icache.mshr_cap_events                   0                       # number of times MSHR cap was activated
system.cpu.icache.no_allocate_misses                0                       # Number of misses that were no-allocate
system.cpu.icache.occ_%::0                   0.012391                       # Average percentage of cache occupancy
system.cpu.icache.occ_blocks::0              6.344271                       # Average occupied blocks per context
system.cpu.icache.overall_accesses           11680348                       # number of overall (read+write) accesses
system.cpu.icache.overall_avg_miss_latency 52666.666667                       # average overall miss latency
system.cpu.icache.overall_avg_mshr_miss_latency 67071.428571                       # average overall mshr miss latency
system.cpu.icache.overall_avg_mshr_uncacheable_latency     no_value                       # average overall mshr uncacheable latency
system.cpu.icache.overall_hits               11680336                       # number of overall hits
system.cpu.icache.overall_miss_latency         632000                       # number of overall miss cycles
system.cpu.icache.overall_miss_rate          0.000001                       # miss rate for overall accesses
system.cpu.icache.overall_misses                   12                       # number of overall misses
system.cpu.icache.overall_mshr_hits                 4                       # number of overall MSHR hits
system.cpu.icache.overall_mshr_miss_latency       469500                       # number of overall MSHR miss cycles
system.cpu.icache.overall_mshr_miss_rate     0.000001                       # mshr miss rate for overall accesses
system.cpu.icache.overall_mshr_misses               7                       # number of overall MSHR misses
system.cpu.icache.overall_mshr_uncacheable_latency            0                       # number of overall MSHR uncacheable cycles
system.cpu.icache.overall_mshr_uncacheable_misses            0                       # number of overall MSHR uncacheable misses
system.cpu.icache.prefetch_accuracy          no_value                       # ratio of good prefetches to total prefetches
system.cpu.icache.prefetch_hits                     0                       # number of prefetched blocks that were accessed
system.cpu.icache.replacements                      0                       # number of replacements
system.cpu.icache.sampled_refs                      8                       # Sample count of references to valid blocks.
system.cpu.icache.soft_prefetch_mshr_full            0                       # number of mshr full events for SW prefetching instrutions
system.cpu.icache.tagsinuse                  6.344271                       # Cycle average of tags in use
system.cpu.icache.total_refs                 11680336                       # Total number of references to valid blocks.
system.cpu.icache.warmup_cycle                      0                       # Cycle when the warmup percentage was hit.
system.cpu.icache.writebacks                        0                       # number of writebacks
system.cpu.idle_fraction                            0                       # Percentage of idle cycles
system.cpu.itb.data_accesses                        0                       # DTB accesses
system.cpu.itb.data_acv                             0                       # DTB access violations
system.cpu.itb.data_hits                            0                       # DTB hits
system.cpu.itb.data_misses                          0                       # DTB misses
system.cpu.itb.fetch_accesses                       2                       # ITB accesses
system.cpu.itb.fetch_acv                            0                       # ITB acv
system.cpu.itb.fetch_hits                           2                       # ITB hits
system.cpu.itb.fetch_misses                         0                       # ITB misses
system.cpu.itb.read_accesses                        0                       # DTB read accesses
system.cpu.itb.read_acv                             0                       # DTB read access violations
system.cpu.itb.read_hits                            0                       # DTB read hits
system.cpu.itb.read_misses                          0                       # DTB read misses
system.cpu.itb.write_accesses                       0                       # DTB write accesses
system.cpu.itb.write_acv                            0                       # DTB write access violations
system.cpu.itb.write_hits                           0                       # DTB write hits
system.cpu.itb.write_misses                         0                       # DTB write misses
system.cpu.not_idle_fraction                        1                       # Percentage of non-idle cycles
system.cpu.numCycles                                2                       # number of cpu cycles simulated
system.cpu.num_insts                                2                       # Number of instructions executed
system.cpu.num_refs                                 1                       # Number of memory references
system.cpu.workload.PROG:num_syscalls               0                       # Number of system calls
system.l2.HardPFReq_avg_mshr_miss_latency 64073.275483                       # average HardPFReq mshr miss latency
system.l2.HardPFReq_mshr_miss_latency       390975127                       # number of HardPFReq MSHR miss cycles
system.l2.HardPFReq_mshr_miss_rate                inf                       # mshr miss rate for HardPFReq accesses
system.l2.HardPFReq_mshr_misses                  6102                       # number of HardPFReq MSHR misses
system.l2.ReadExReq_accesses                     1685                       # number of ReadExReq accesses(hits+misses)
system.l2.ReadExReq_avg_miss_latency     56312.500000                       # average ReadExReq miss latency
system.l2.ReadExReq_avg_mshr_miss_latency        40000                       # average ReadExReq mshr miss latency
system.l2.ReadExReq_hits                         1677                       # number of ReadExReq hits
system.l2.ReadExReq_miss_latency               450500                       # number of ReadExReq miss cycles
system.l2.ReadExReq_miss_rate                0.004748                       # miss rate for ReadExReq accesses
system.l2.ReadExReq_misses                          8                       # number of ReadExReq misses
system.l2.ReadExReq_mshr_miss_latency          320000                       # number of ReadExReq MSHR miss cycles
system.l2.ReadExReq_mshr_miss_rate           0.004748                       # mshr miss rate for ReadExReq accesses
system.l2.ReadExReq_mshr_misses                     8                       # number of ReadExReq MSHR misses
system.l2.ReadReq_accesses                      56225                       # number of ReadReq accesses(hits+misses)
system.l2.ReadReq_avg_miss_latency       57842.043682                       # average ReadReq miss latency
system.l2.ReadReq_avg_mshr_miss_latency  41921.386719                       # average ReadReq mshr miss latency
system.l2.ReadReq_hits                          51097                       # number of ReadReq hits
system.l2.ReadReq_miss_latency              296614000                       # number of ReadReq miss cycles
system.l2.ReadReq_miss_rate                  0.091205                       # miss rate for ReadReq accesses
system.l2.ReadReq_misses                         5128                       # number of ReadReq misses
system.l2.ReadReq_mshr_hits                         6                       # number of ReadReq MSHR hits
system.l2.ReadReq_mshr_miss_latency         214637500                       # number of ReadReq MSHR miss cycles
system.l2.ReadReq_mshr_miss_rate             0.091063                       # mshr miss rate for ReadReq accesses
system.l2.ReadReq_mshr_misses                    5120                       # number of ReadReq MSHR misses
system.l2.UpgradeReq_accesses                     407                       # number of UpgradeReq accesses(hits+misses)
system.l2.UpgradeReq_avg_miss_latency    56195.331695                       # average UpgradeReq miss latency
system.l2.UpgradeReq_avg_mshr_miss_latency 40313.267813                       # average UpgradeReq mshr miss latency
system.l2.UpgradeReq_miss_latency            22871500                       # number of UpgradeReq miss cycles
system.l2.UpgradeReq_miss_rate                      1                       # miss rate for UpgradeReq accesses
system.l2.UpgradeReq_misses                       407                       # number of UpgradeReq misses
system.l2.UpgradeReq_mshr_miss_latency       16407500                       # number of UpgradeReq MSHR miss cycles
system.l2.UpgradeReq_mshr_miss_rate                 1                       # mshr miss rate for UpgradeReq accesses
system.l2.UpgradeReq_mshr_misses                  407                       # number of UpgradeReq MSHR misses
system.l2.Writeback_accesses                     2046                       # number of Writeback accesses(hits+misses)
system.l2.Writeback_hits                         2046                       # number of Writeback hits
system.l2.avg_blocked_cycles::no_mshrs       no_value                       # average number of cycles each access was blocked
system.l2.avg_blocked_cycles::no_targets     no_value                       # average number of cycles each access was blocked
system.l2.avg_refs                           4.768142                       # Average number of references to valid blocks.
system.l2.blocked::no_mshrs                         0                       # number of cycles access was blocked
system.l2.blocked::no_targets                       0                       # number of cycles access was blocked
system.l2.blocked_cycles::no_mshrs                  0                       # number of cycles access was blocked
system.l2.blocked_cycles::no_targets                0                       # number of cycles access was blocked
system.l2.cache_copies                              0                       # number of cache copies performed
system.l2.demand_accesses                       57910                       # number of demand (read+write) accesses
system.l2.demand_avg_miss_latency        57839.661215                       # average overall miss latency
system.l2.demand_avg_mshr_miss_latency   41918.389236                       # average overall mshr miss latency
system.l2.demand_hits                           52774                       # number of demand (read+write) hits
system.l2.demand_miss_latency               297064500                       # number of demand (read+write) miss cycles
system.l2.demand_miss_rate                   0.088689                       # miss rate for demand accesses
system.l2.demand_misses                          5136                       # number of demand (read+write) misses
system.l2.demand_mshr_hits                          6                       # number of demand (read+write) MSHR hits
system.l2.demand_mshr_miss_latency          214957500                       # number of demand (read+write) MSHR miss cycles
system.l2.demand_mshr_miss_rate              0.088551                       # mshr miss rate for demand accesses
system.l2.demand_mshr_misses                     5128                       # number of demand (read+write) MSHR misses
system.l2.fast_writes                               0                       # number of fast writes performed
system.l2.mshr_cap_events                           0                       # number of times MSHR cap was activated
system.l2.no_allocate_misses                        0                       # Number of misses that were no-allocate
system.l2.occ_%::0                           0.354825                       # Average percentage of cache occupancy
system.l2.occ_%::1                           0.032250                       # Average percentage of cache occupancy
system.l2.occ_blocks::0                   5813.445598                       # Average occupied blocks per context
system.l2.occ_blocks::1                    528.379607                       # Average occupied blocks per context
system.l2.overall_accesses                      57910                       # number of overall (read+write) accesses
system.l2.overall_avg_miss_latency       57839.661215                       # average overall miss latency
system.l2.overall_avg_mshr_miss_latency  53956.600801                       # average overall mshr miss latency
system.l2.overall_avg_mshr_uncacheable_latency     no_value                       # average overall mshr uncacheable latency
system.l2.overall_hits                          52774                       # number of overall hits
system.l2.overall_miss_latency              297064500                       # number of overall miss cycles
system.l2.overall_miss_rate                  0.088689                       # miss rate for overall accesses
system.l2.overall_misses                         5136                       # number of overall misses
system.l2.overall_mshr_hits                         6                       # number of overall MSHR hits
system.l2.overall_mshr_miss_latency         605932627                       # number of overall MSHR miss cycles
system.l2.overall_mshr_miss_rate             0.193922                       # mshr miss rate for overall accesses
system.l2.overall_mshr_misses                   11230                       # number of overall MSHR misses
system.l2.overall_mshr_uncacheable_latency            0                       # number of overall MSHR uncacheable cycles
system.l2.overall_mshr_uncacheable_misses            0                       # number of overall MSHR uncacheable misses
system.l2.prefetch_accuracy                  0.703540                       # ratio of good prefetches to total prefetches
system.l2.prefetch_hits                          4293                       # number of prefetched blocks that were accessed
system.l2.prefetcher.num_hwpf_already_in_prefetcher         1346                       # number of hwpf that were already in the prefetch queue
system.l2.prefetcher.num_hwpf_evicted               0                       # number of hwpf removed due to no buffer left
system.l2.prefetcher.num_hwpf_identified         7482                       # number of hwpf identified
system.l2.prefetcher.num_hwpf_issued             6130                       # number of hwpf issued
system.l2.prefetcher.num_hwpf_removed_MSHR_hit            6                       # number of hwpf removed because MSHR allocated
system.l2.prefetcher.num_hwpf_span_page             0                       # number of hwpf spanning a virtual page
system.l2.prefetcher.num_hwpf_squashed_from_miss            0                       # number of hwpf that got squashed due to a miss aborting calculation time
system.l2.replacements                             86                       # number of replacements
system.l2.sampled_refs                          10735                       # Sample count of references to valid blocks.
system.l2.soft_prefetch_mshr_full                   0                       # number of mshr full events for SW prefetching instrutions
system.l2.tagsinuse                       6341.825205                       # Cycle average of tags in use
system.l2.total_refs                            51186                       # Total number of references to valid blocks.
system.l2.warmup_cycle                              0                       # Cycle when the warmup percentage was hit.
system.l2.writebacks                               16                       # number of writebacks
system.switch_cpus.dtb.data_accesses          2980384                       # DTB accesses
system.switch_cpus.dtb.data_acv                     0                       # DTB access violations
system.switch_cpus.dtb.data_hits              2980266                       # DTB hits
system.switch_cpus.dtb.data_misses                118                       # DTB misses
system.switch_cpus.dtb.fetch_accesses               0                       # ITB accesses
system.switch_cpus.dtb.fetch_acv                    0                       # ITB acv
system.switch_cpus.dtb.fetch_hits                   0                       # ITB hits
system.switch_cpus.dtb.fetch_misses                 0                       # ITB misses
system.switch_cpus.dtb.read_accesses          1546342                       # DTB read accesses
system.switch_cpus.dtb.read_acv                     0                       # DTB read access violations
system.switch_cpus.dtb.read_hits              1546235                       # DTB read hits
system.switch_cpus.dtb.read_misses                107                       # DTB read misses
system.switch_cpus.dtb.write_accesses         1434042                       # DTB write accesses
system.switch_cpus.dtb.write_acv                    0                       # DTB write access violations
system.switch_cpus.dtb.write_hits             1434031                       # DTB write hits
system.switch_cpus.dtb.write_misses                11                       # DTB write misses
system.switch_cpus.idle_fraction                    1                       # Percentage of idle cycles
system.switch_cpus.itb.data_accesses                0                       # DTB accesses
system.switch_cpus.itb.data_acv                     0                       # DTB access violations
system.switch_cpus.itb.data_hits                    0                       # DTB hits
system.switch_cpus.itb.data_misses                  0                       # DTB misses
system.switch_cpus.itb.fetch_accesses        10000121                       # ITB accesses
system.switch_cpus.itb.fetch_acv                    0                       # ITB acv
system.switch_cpus.itb.fetch_hits            10000120                       # ITB hits
system.switch_cpus.itb.fetch_misses                 1                       # ITB misses
system.switch_cpus.itb.read_accesses                0                       # DTB read accesses
system.switch_cpus.itb.read_acv                     0                       # DTB read access violations
system.switch_cpus.itb.read_hits                    0                       # DTB read hits
system.switch_cpus.itb.read_misses                  0                       # DTB read misses
system.switch_cpus.itb.write_accesses               0                       # DTB write accesses
system.switch_cpus.itb.write_acv                    0                       # DTB write access violations
system.switch_cpus.itb.write_hits                   0                       # DTB write hits
system.switch_cpus.itb.write_misses                 0                       # DTB write misses
system.switch_cpus.not_idle_fraction                0                       # Percentage of non-idle cycles
system.switch_cpus.numCycles                 27406129                       # number of cpu cycles simulated
system.switch_cpus.num_insts                 10000001                       # Number of instructions executed
system.switch_cpus.num_refs                   2980384                       # Number of memory references
system.switch_cpus_1.BPredUnit.BTBCorrect            0                       # Number of correct BTB predictions (this stat may not work properly.
system.switch_cpus_1.BPredUnit.BTBHits        1380638                       # Number of BTB hits
system.switch_cpus_1.BPredUnit.BTBLookups      1389385                       # Number of BTB lookups
system.switch_cpus_1.BPredUnit.RASInCorrect            0                       # Number of incorrect RAS predictions.
system.switch_cpus_1.BPredUnit.condIncorrect        36048                       # Number of conditional branches incorrect
system.switch_cpus_1.BPredUnit.condPredicted      1682490                       # Number of conditional branches predicted
system.switch_cpus_1.BPredUnit.lookups        1704088                       # Number of BP lookups
system.switch_cpus_1.BPredUnit.usedRAS              0                       # Number of times the RAS was used to get a target.
system.switch_cpus_1.commit.COM:branches      1550214                       # Number of branches committed
system.switch_cpus_1.commit.COM:bw_lim_events        39078                       # number cycles where commit BW limit reached
system.switch_cpus_1.commit.COM:bw_limited            0                       # number of insts not committed due to BW limits
system.switch_cpus_1.commit.COM:committed_per_cycle::samples      5925863                       # Number of insts commited each cycle
system.switch_cpus_1.commit.COM:committed_per_cycle::mean     1.703515                       # Number of insts commited each cycle
system.switch_cpus_1.commit.COM:committed_per_cycle::stdev     1.786842                       # Number of insts commited each cycle
system.switch_cpus_1.commit.COM:committed_per_cycle::underflows            0      0.00%      0.00% # Number of insts commited each cycle
system.switch_cpus_1.commit.COM:committed_per_cycle::0      1360583     22.96%     22.96% # Number of insts commited each cycle
system.switch_cpus_1.commit.COM:committed_per_cycle::1      2982544     50.33%     73.29% # Number of insts commited each cycle
system.switch_cpus_1.commit.COM:committed_per_cycle::2        41720      0.70%     74.00% # Number of insts commited each cycle
system.switch_cpus_1.commit.COM:committed_per_cycle::3        23876      0.40%     74.40% # Number of insts commited each cycle
system.switch_cpus_1.commit.COM:committed_per_cycle::4       750647     12.67%     87.07% # Number of insts commited each cycle
system.switch_cpus_1.commit.COM:committed_per_cycle::5       723433     12.21%     99.27% # Number of insts commited each cycle
system.switch_cpus_1.commit.COM:committed_per_cycle::6         3065      0.05%     99.33% # Number of insts commited each cycle
system.switch_cpus_1.commit.COM:committed_per_cycle::7          917      0.02%     99.34% # Number of insts commited each cycle
system.switch_cpus_1.commit.COM:committed_per_cycle::8        39078      0.66%    100.00% # Number of insts commited each cycle
system.switch_cpus_1.commit.COM:committed_per_cycle::overflows            0      0.00%    100.00% # Number of insts commited each cycle
system.switch_cpus_1.commit.COM:committed_per_cycle::min_value            0                       # Number of insts commited each cycle
system.switch_cpus_1.commit.COM:committed_per_cycle::max_value            8                       # Number of insts commited each cycle
system.switch_cpus_1.commit.COM:committed_per_cycle::total      5925863                       # Number of insts commited each cycle
system.switch_cpus_1.commit.COM:count        10094798                       # Number of instructions committed
system.switch_cpus_1.commit.COM:loads         1558455                       # Number of loads committed
system.switch_cpus_1.commit.COM:membars             0                       # Number of memory barriers committed
system.switch_cpus_1.commit.COM:refs          3066611                       # Number of memory references committed
system.switch_cpus_1.commit.COM:swp_count            0                       # Number of s/w prefetches committed
system.switch_cpus_1.commit.branchMispredicts        36045                       # The number of times a branch was mispredicted
system.switch_cpus_1.commit.commitCommittedInsts     10094798                       # The number of committed instructions
system.switch_cpus_1.commit.commitSquashedInsts       742922                       # The number of squashed insts skipped by commit
system.switch_cpus_1.committedInsts          10000000                       # Number of Instructions Simulated
system.switch_cpus_1.committedInsts_total     10000000                       # Number of Instructions Simulated
system.switch_cpus_1.cpi                     0.604895                       # CPI: Cycles Per Instruction
system.switch_cpus_1.cpi_total               0.604895                       # CPI: Total CPI of All Threads
system.switch_cpus_1.decode.DECODE:BlockedCycles        35001                       # Number of cycles decode is blocked
system.switch_cpus_1.decode.DECODE:BranchMispred           82                       # Number of times decode detected a branch misprediction
system.switch_cpus_1.decode.DECODE:BranchResolved        20362                       # Number of times decode resolved a branch
system.switch_cpus_1.decode.DECODE:DecodedInsts     11088522                       # Number of instructions handled by decode
system.switch_cpus_1.decode.DECODE:IdleCycles      3364352                       # Number of cycles decode is idle
system.switch_cpus_1.decode.DECODE:RunCycles      2525403                       # Number of cycles decode is running
system.switch_cpus_1.decode.DECODE:SquashCycles       119287                       # Number of cycles decode is squashing
system.switch_cpus_1.decode.DECODE:SquashedInsts            1                       # Number of squashed instructions handled by decode
system.switch_cpus_1.decode.DECODE:UnblockCycles         1106                       # Number of cycles decode is unblocking
system.switch_cpus_1.dtb.data_accesses        3204638                       # DTB accesses
system.switch_cpus_1.dtb.data_acv                   0                       # DTB access violations
system.switch_cpus_1.dtb.data_hits            3204523                       # DTB hits
system.switch_cpus_1.dtb.data_misses              115                       # DTB misses
system.switch_cpus_1.dtb.fetch_accesses             0                       # ITB accesses
system.switch_cpus_1.dtb.fetch_acv                  0                       # ITB acv
system.switch_cpus_1.dtb.fetch_hits                 0                       # ITB hits
system.switch_cpus_1.dtb.fetch_misses               0                       # ITB misses
system.switch_cpus_1.dtb.read_accesses        1636999                       # DTB read accesses
system.switch_cpus_1.dtb.read_acv                   0                       # DTB read access violations
system.switch_cpus_1.dtb.read_hits            1636892                       # DTB read hits
system.switch_cpus_1.dtb.read_misses              107                       # DTB read misses
system.switch_cpus_1.dtb.write_accesses       1567639                       # DTB write accesses
system.switch_cpus_1.dtb.write_acv                  0                       # DTB write access violations
system.switch_cpus_1.dtb.write_hits           1567631                       # DTB write hits
system.switch_cpus_1.dtb.write_misses               8                       # DTB write misses
system.switch_cpus_1.fetch.Branches           1704088                       # Number of branches that fetch encountered
system.switch_cpus_1.fetch.CacheLines         1680226                       # Number of cache lines fetched
system.switch_cpus_1.fetch.Cycles             4218025                       # Number of cycles fetch has run and was not squashing or blocked
system.switch_cpus_1.fetch.IcacheSquashes        11189                       # Number of outstanding Icache misses that were squashed
system.switch_cpus_1.fetch.Insts             11158703                       # Number of instructions fetch has processed
system.switch_cpus_1.fetch.SquashCycles         39861                       # Number of cycles fetch has spent squashing
system.switch_cpus_1.fetch.branchRate        0.281717                       # Number of branch fetches per cycle
system.switch_cpus_1.fetch.icacheStallCycles      1680226                       # Number of cycles fetch is stalled on an Icache miss
system.switch_cpus_1.fetch.predictedBranches      1380638                       # Number of branches that fetch has predicted taken
system.switch_cpus_1.fetch.rate              1.844735                       # Number of inst fetches per cycle
system.switch_cpus_1.fetch.rateDist::samples      6045150                       # Number of instructions fetched each cycle (Total)
system.switch_cpus_1.fetch.rateDist::mean     1.845893                       # Number of instructions fetched each cycle (Total)
system.switch_cpus_1.fetch.rateDist::stdev     2.768270                       # Number of instructions fetched each cycle (Total)
system.switch_cpus_1.fetch.rateDist::underflows            0      0.00%      0.00% # Number of instructions fetched each cycle (Total)
system.switch_cpus_1.fetch.rateDist::0        3507351     58.02%     58.02% # Number of instructions fetched each cycle (Total)
system.switch_cpus_1.fetch.rateDist::1         787462     13.03%     71.05% # Number of instructions fetched each cycle (Total)
system.switch_cpus_1.fetch.rateDist::2          36627      0.61%     71.65% # Number of instructions fetched each cycle (Total)
system.switch_cpus_1.fetch.rateDist::3           8005      0.13%     71.78% # Number of instructions fetched each cycle (Total)
system.switch_cpus_1.fetch.rateDist::4         368373      6.09%     77.88% # Number of instructions fetched each cycle (Total)
system.switch_cpus_1.fetch.rateDist::5         481579      7.97%     85.84% # Number of instructions fetched each cycle (Total)
system.switch_cpus_1.fetch.rateDist::6           8810      0.15%     85.99% # Number of instructions fetched each cycle (Total)
system.switch_cpus_1.fetch.rateDist::7         435819      7.21%     93.20% # Number of instructions fetched each cycle (Total)
system.switch_cpus_1.fetch.rateDist::8         411124      6.80%    100.00% # Number of instructions fetched each cycle (Total)
system.switch_cpus_1.fetch.rateDist::overflows            0      0.00%    100.00% # Number of instructions fetched each cycle (Total)
system.switch_cpus_1.fetch.rateDist::min_value            0                       # Number of instructions fetched each cycle (Total)
system.switch_cpus_1.fetch.rateDist::max_value            8                       # Number of instructions fetched each cycle (Total)
system.switch_cpus_1.fetch.rateDist::total      6045150                       # Number of instructions fetched each cycle (Total)
system.switch_cpus_1.idleCycles                  3796                       # Total number of cycles that the CPU has spent unscheduled due to idling
system.switch_cpus_1.iew.EXEC:branches        1621875                       # Number of branches executed
system.switch_cpus_1.iew.EXEC:nop              183818                       # number of nop insts executed
system.switch_cpus_1.iew.EXEC:rate           1.730064                       # Inst execution rate
system.switch_cpus_1.iew.EXEC:refs            3204638                       # number of memory reference insts executed
system.switch_cpus_1.iew.EXEC:stores          1567639                       # Number of stores executed
system.switch_cpus_1.iew.EXEC:swp                   0                       # number of swp insts executed
system.switch_cpus_1.iew.WB:consumers         8581663                       # num instructions consuming a value
system.switch_cpus_1.iew.WB:count            10443391                       # cumulative count of insts written-back
system.switch_cpus_1.iew.WB:fanout           0.735331                       # average fanout of values written-back
system.switch_cpus_1.iew.WB:penalized               0                       # number of instrctions required to write to 'other' IQ
system.switch_cpus_1.iew.WB:penalized_rate            0                       # fraction of instructions written-back that wrote to 'other' IQ
system.switch_cpus_1.iew.WB:producers         6310367                       # num instructions producing a value
system.switch_cpus_1.iew.WB:rate             1.726481                       # insts written-back per cycle
system.switch_cpus_1.iew.WB:sent             10444068                       # cumulative count of insts sent to commit
system.switch_cpus_1.iew.branchMispredicts        37933                       # Number of branch mispredicts detected at execute
system.switch_cpus_1.iew.iewBlockCycles          5228                       # Number of cycles IEW is blocking
system.switch_cpus_1.iew.iewDispLoadInsts      1664763                       # Number of dispatched load instructions
system.switch_cpus_1.iew.iewDispNonSpecInsts            0                       # Number of dispatched non-speculative instructions
system.switch_cpus_1.iew.iewDispSquashedInsts        67015                       # Number of squashed instructions skipped by dispatch
system.switch_cpus_1.iew.iewDispStoreInsts      1596333                       # Number of dispatched store instructions
system.switch_cpus_1.iew.iewDispatchedInsts     10839550                       # Number of instructions dispatched to IQ
system.switch_cpus_1.iew.iewExecLoadInsts      1636999                       # Number of load instructions executed
system.switch_cpus_1.iew.iewExecSquashedInsts        51152                       # Number of squashed instructions skipped in execute
system.switch_cpus_1.iew.iewExecutedInsts     10465062                       # Number of executed instructions
system.switch_cpus_1.iew.iewIQFullEvents           16                       # Number of times the IQ has become full, causing a stall
system.switch_cpus_1.iew.iewIdleCycles              0                       # Number of cycles IEW is idle
system.switch_cpus_1.iew.iewLSQFullEvents            0                       # Number of times the LSQ has become full, causing a stall
system.switch_cpus_1.iew.iewSquashCycles       119287                       # Number of cycles IEW is squashing
system.switch_cpus_1.iew.iewUnblockCycles          146                       # Number of cycles IEW is unblocking
system.switch_cpus_1.iew.lsq.thread.0.blockedLoads            0                       # Number of blocked loads due to partial load-store forwarding
system.switch_cpus_1.iew.lsq.thread.0.cacheBlocked         2184                       # Number of times an access to memory failed due to the cache being blocked
system.switch_cpus_1.iew.lsq.thread.0.forwLoads        34375                       # Number of loads that had data forwarded from stores
system.switch_cpus_1.iew.lsq.thread.0.ignoredResponses         1425                       # Number of memory responses ignored because the instruction is squashed
system.switch_cpus_1.iew.lsq.thread.0.invAddrLoads            0                       # Number of loads ignored due to an invalid address
system.switch_cpus_1.iew.lsq.thread.0.invAddrSwpfs            0                       # Number of software prefetches ignored due to an invalid address
system.switch_cpus_1.iew.lsq.thread.0.memOrderViolation         1630                       # Number of memory ordering violations
system.switch_cpus_1.iew.lsq.thread.0.rescheduledLoads            0                       # Number of loads that were rescheduled
system.switch_cpus_1.iew.lsq.thread.0.squashedLoads       106306                       # Number of loads squashed
system.switch_cpus_1.iew.lsq.thread.0.squashedStores        88175                       # Number of stores squashed
system.switch_cpus_1.iew.memOrderViolationEvents         1630                       # Number of memory order violations
system.switch_cpus_1.iew.predictedNotTakenIncorrect         6988                       # Number of branches that were predicted not taken incorrectly
system.switch_cpus_1.iew.predictedTakenIncorrect        30945                       # Number of branches that were predicted taken incorrectly
system.switch_cpus_1.ipc                     1.653181                       # IPC: Instructions Per Cycle
system.switch_cpus_1.ipc_total               1.653181                       # IPC: Total IPC of All Threads
system.switch_cpus_1.iq.ISSUE:FU_type_0::No_OpClass            0      0.00%      0.00% # Type of FU issued
system.switch_cpus_1.iq.ISSUE:FU_type_0::IntAlu      7297436     69.39%     69.39% # Type of FU issued
system.switch_cpus_1.iq.ISSUE:FU_type_0::IntMult            0      0.00%     69.39% # Type of FU issued
system.switch_cpus_1.iq.ISSUE:FU_type_0::IntDiv            0      0.00%     69.39% # Type of FU issued
system.switch_cpus_1.iq.ISSUE:FU_type_0::FloatAdd            0      0.00%     69.39% # Type of FU issued
system.switch_cpus_1.iq.ISSUE:FU_type_0::FloatCmp            0      0.00%     69.39% # Type of FU issued
system.switch_cpus_1.iq.ISSUE:FU_type_0::FloatCvt            0      0.00%     69.39% # Type of FU issued
system.switch_cpus_1.iq.ISSUE:FU_type_0::FloatMult            0      0.00%     69.39% # Type of FU issued
system.switch_cpus_1.iq.ISSUE:FU_type_0::FloatDiv            0      0.00%     69.39% # Type of FU issued
system.switch_cpus_1.iq.ISSUE:FU_type_0::FloatSqrt            0      0.00%     69.39% # Type of FU issued
system.switch_cpus_1.iq.ISSUE:FU_type_0::MemRead      1640977     15.60%     85.00% # Type of FU issued
system.switch_cpus_1.iq.ISSUE:FU_type_0::MemWrite      1577802     15.00%    100.00% # Type of FU issued
system.switch_cpus_1.iq.ISSUE:FU_type_0::IprAccess            0      0.00%    100.00% # Type of FU issued
system.switch_cpus_1.iq.ISSUE:FU_type_0::InstPrefetch            0      0.00%    100.00% # Type of FU issued
system.switch_cpus_1.iq.ISSUE:FU_type_0::total     10516215                       # Type of FU issued
system.switch_cpus_1.iq.ISSUE:fu_busy_cnt         4082                       # FU busy when requested
system.switch_cpus_1.iq.ISSUE:fu_busy_rate     0.000388                       # FU busy rate (busy events/executed inst)
system.switch_cpus_1.iq.ISSUE:fu_full::No_OpClass            0      0.00%      0.00% # attempts to use FU when none available
system.switch_cpus_1.iq.ISSUE:fu_full::IntAlu         3939     96.50%     96.50% # attempts to use FU when none available
system.switch_cpus_1.iq.ISSUE:fu_full::IntMult            0      0.00%     96.50% # attempts to use FU when none available
system.switch_cpus_1.iq.ISSUE:fu_full::IntDiv            0      0.00%     96.50% # attempts to use FU when none available
system.switch_cpus_1.iq.ISSUE:fu_full::FloatAdd            0      0.00%     96.50% # attempts to use FU when none available
system.switch_cpus_1.iq.ISSUE:fu_full::FloatCmp            0      0.00%     96.50% # attempts to use FU when none available
system.switch_cpus_1.iq.ISSUE:fu_full::FloatCvt            0      0.00%     96.50% # attempts to use FU when none available
system.switch_cpus_1.iq.ISSUE:fu_full::FloatMult            0      0.00%     96.50% # attempts to use FU when none available
system.switch_cpus_1.iq.ISSUE:fu_full::FloatDiv            0      0.00%     96.50% # attempts to use FU when none available
system.switch_cpus_1.iq.ISSUE:fu_full::FloatSqrt            0      0.00%     96.50% # attempts to use FU when none available
system.switch_cpus_1.iq.ISSUE:fu_full::MemRead          117      2.87%     99.36% # attempts to use FU when none available
system.switch_cpus_1.iq.ISSUE:fu_full::MemWrite           26      0.64%    100.00% # attempts to use FU when none available
system.switch_cpus_1.iq.ISSUE:fu_full::IprAccess            0      0.00%    100.00% # attempts to use FU when none available
system.switch_cpus_1.iq.ISSUE:fu_full::InstPrefetch            0      0.00%    100.00% # attempts to use FU when none available
system.switch_cpus_1.iq.ISSUE:issued_per_cycle::samples      6045150                       # Number of insts issued each cycle
system.switch_cpus_1.iq.ISSUE:issued_per_cycle::mean     1.739612                       # Number of insts issued each cycle
system.switch_cpus_1.iq.ISSUE:issued_per_cycle::stdev     1.144831                       # Number of insts issued each cycle
system.switch_cpus_1.iq.ISSUE:issued_per_cycle::underflows            0      0.00%      0.00% # Number of insts issued each cycle
system.switch_cpus_1.iq.ISSUE:issued_per_cycle::0       528294      8.74%      8.74% # Number of insts issued each cycle
system.switch_cpus_1.iq.ISSUE:issued_per_cycle::1      2345870     38.81%     47.54% # Number of insts issued each cycle
system.switch_cpus_1.iq.ISSUE:issued_per_cycle::2      2272429     37.59%     85.14% # Number of insts issued each cycle
system.switch_cpus_1.iq.ISSUE:issued_per_cycle::3        43194      0.71%     85.85% # Number of insts issued each cycle
system.switch_cpus_1.iq.ISSUE:issued_per_cycle::4       796217     13.17%     99.02% # Number of insts issued each cycle
system.switch_cpus_1.iq.ISSUE:issued_per_cycle::5        46934      0.78%     99.80% # Number of insts issued each cycle
system.switch_cpus_1.iq.ISSUE:issued_per_cycle::6         9172      0.15%     99.95% # Number of insts issued each cycle
system.switch_cpus_1.iq.ISSUE:issued_per_cycle::7         2985      0.05%    100.00% # Number of insts issued each cycle
system.switch_cpus_1.iq.ISSUE:issued_per_cycle::8           55      0.00%    100.00% # Number of insts issued each cycle
system.switch_cpus_1.iq.ISSUE:issued_per_cycle::overflows            0      0.00%    100.00% # Number of insts issued each cycle
system.switch_cpus_1.iq.ISSUE:issued_per_cycle::min_value            0                       # Number of insts issued each cycle
system.switch_cpus_1.iq.ISSUE:issued_per_cycle::max_value            8                       # Number of insts issued each cycle
system.switch_cpus_1.iq.ISSUE:issued_per_cycle::total      6045150                       # Number of insts issued each cycle
system.switch_cpus_1.iq.ISSUE:rate           1.738520                       # Inst issue rate
system.switch_cpus_1.iq.iqInstsAdded         10655732                       # Number of instructions added to the IQ (excludes non-spec)
system.switch_cpus_1.iq.iqInstsIssued        10516215                       # Number of instructions issued
system.switch_cpus_1.iq.iqSquashedInstsExamined       595432                       # Number of squashed instructions iterated over during squash; mainly for profiling
system.switch_cpus_1.iq.iqSquashedInstsIssued          160                       # Number of squashed instructions issued
system.switch_cpus_1.iq.iqSquashedOperandsExamined       261274                       # Number of squashed operands that are examined and possibly removed from graph
system.switch_cpus_1.itb.data_accesses              0                       # DTB accesses
system.switch_cpus_1.itb.data_acv                   0                       # DTB access violations
system.switch_cpus_1.itb.data_hits                  0                       # DTB hits
system.switch_cpus_1.itb.data_misses                0                       # DTB misses
system.switch_cpus_1.itb.fetch_accesses       1680227                       # ITB accesses
system.switch_cpus_1.itb.fetch_acv                  0                       # ITB acv
system.switch_cpus_1.itb.fetch_hits           1680226                       # ITB hits
system.switch_cpus_1.itb.fetch_misses               1                       # ITB misses
system.switch_cpus_1.itb.read_accesses              0                       # DTB read accesses
system.switch_cpus_1.itb.read_acv                   0                       # DTB read access violations
system.switch_cpus_1.itb.read_hits                  0                       # DTB read hits
system.switch_cpus_1.itb.read_misses                0                       # DTB read misses
system.switch_cpus_1.itb.write_accesses             0                       # DTB write accesses
system.switch_cpus_1.itb.write_acv                  0                       # DTB write access violations
system.switch_cpus_1.itb.write_hits                 0                       # DTB write hits
system.switch_cpus_1.itb.write_misses               0                       # DTB write misses
system.switch_cpus_1.memDep0.conflictingLoads       729280                       # Number of conflicting loads.
system.switch_cpus_1.memDep0.conflictingStores       432377                       # Number of conflicting stores.
system.switch_cpus_1.memDep0.insertedLoads      1664763                       # Number of loads inserted to the mem dependence unit.
system.switch_cpus_1.memDep0.insertedStores      1596333                       # Number of stores inserted to the mem dependence unit.
system.switch_cpus_1.numCycles                6048946                       # number of cpu cycles simulated
system.switch_cpus_1.rename.RENAME:BlockCycles        23255                       # Number of cycles rename is blocking
system.switch_cpus_1.rename.RENAME:CommittedMaps      6941630                       # Number of HB maps that are committed
system.switch_cpus_1.rename.RENAME:IQFullEvents           57                       # Number of times rename has blocked due to IQ full
system.switch_cpus_1.rename.RENAME:IdleCycles      3379077                       # Number of cycles rename is idle
system.switch_cpus_1.rename.RENAME:LSQFullEvents        10760                       # Number of times rename has blocked due to LSQ full
system.switch_cpus_1.rename.RENAME:ROBFullEvents         1000                       # Number of times rename has blocked due to ROB full
system.switch_cpus_1.rename.RENAME:RenameLookups     15768850                       # Number of register rename lookups that rename has made
system.switch_cpus_1.rename.RENAME:RenamedInsts     11040289                       # Number of instructions processed by rename
system.switch_cpus_1.rename.RENAME:RenamedOperands      7547202                       # Number of destination operands rename has renamed
system.switch_cpus_1.rename.RENAME:RunCycles      2511381                       # Number of cycles rename is running
system.switch_cpus_1.rename.RENAME:SquashCycles       119287                       # Number of cycles rename is squashing
system.switch_cpus_1.rename.RENAME:UnblockCycles        12149                       # Number of cycles rename is unblocking
system.switch_cpus_1.rename.RENAME:UndoneMaps       605563                       # Number of HB maps that are undone due to squashing
system.switch_cpus_1.rename.RENAME:serializeStallCycles            0                       # count of cycles rename stalled for serializing inst
system.switch_cpus_1.rename.RENAME:serializingInsts            0                       # count of serializing insts renamed
system.switch_cpus_1.rename.RENAME:skidInsts        22575                       # count of insts added to the skid buffer
system.switch_cpus_1.rename.RENAME:tempSerializingInsts            0                       # count of temporary serializing insts renamed
system.switch_cpus_1.timesIdled                   326                       # Number of times that the entire CPU went into an idle state and unscheduled itself

---------- End Simulation Statistics   ----------
