
---------- Begin Simulation Statistics ----------
host_inst_rate                                 351944                       # Simulator instruction rate (inst/s)
host_mem_usage                                 406960                       # Number of bytes of host memory used
host_seconds                                    56.83                       # Real time elapsed on the host
host_tick_rate                              324773456                       # Simulator tick rate (ticks/s)
sim_freq                                 1000000000000                       # Frequency of simulated ticks
sim_insts                                    20000010                       # Number of instructions simulated
sim_seconds                                  0.018456                       # Number of seconds simulated
sim_ticks                                 18456040500                       # Number of ticks simulated
system.cpu.dcache.ReadReq_accesses            4256992                       # number of ReadReq accesses(hits+misses)
system.cpu.dcache.ReadReq_avg_miss_latency 41804.981135                       # average ReadReq miss latency
system.cpu.dcache.ReadReq_avg_mshr_miss_latency 39566.071043                       # average ReadReq mshr miss latency
system.cpu.dcache.ReadReq_hits                4229428                       # number of ReadReq hits
system.cpu.dcache.ReadReq_miss_latency     1152312500                       # number of ReadReq miss cycles
system.cpu.dcache.ReadReq_miss_rate          0.006475                       # miss rate for ReadReq accesses
system.cpu.dcache.ReadReq_misses                27564                       # number of ReadReq misses
system.cpu.dcache.ReadReq_mshr_hits             13685                       # number of ReadReq MSHR hits
system.cpu.dcache.ReadReq_mshr_miss_latency    549137500                       # number of ReadReq MSHR miss cycles
system.cpu.dcache.ReadReq_mshr_miss_rate     0.003260                       # mshr miss rate for ReadReq accesses
system.cpu.dcache.ReadReq_mshr_misses           13879                       # number of ReadReq MSHR misses
system.cpu.dcache.WriteReq_accesses           2851610                       # number of WriteReq accesses(hits+misses)
system.cpu.dcache.WriteReq_avg_miss_latency 82450.873178                       # average WriteReq miss latency
system.cpu.dcache.WriteReq_avg_mshr_miss_latency 89657.895911                       # average WriteReq mshr miss latency
system.cpu.dcache.WriteReq_hits               2799821                       # number of WriteReq hits
system.cpu.dcache.WriteReq_miss_latency    4270048271                       # number of WriteReq miss cycles
system.cpu.dcache.WriteReq_miss_rate         0.018161                       # miss rate for WriteReq accesses
system.cpu.dcache.WriteReq_misses               51789                       # number of WriteReq misses
system.cpu.dcache.WriteReq_mshr_hits            25523                       # number of WriteReq MSHR hits
system.cpu.dcache.WriteReq_mshr_miss_latency   2354954294                       # number of WriteReq MSHR miss cycles
system.cpu.dcache.WriteReq_mshr_miss_rate     0.009211                       # mshr miss rate for WriteReq accesses
system.cpu.dcache.WriteReq_mshr_misses          26266                       # number of WriteReq MSHR misses
system.cpu.dcache.avg_blocked_cycles::no_mshrs 21568.149420                       # average number of cycles each access was blocked
system.cpu.dcache.avg_blocked_cycles::no_targets 57910.591873                       # average number of cycles each access was blocked
system.cpu.dcache.avg_refs                 242.146585                       # Average number of references to valid blocks.
system.cpu.dcache.blocked::no_mshrs              4223                       # number of cycles access was blocked
system.cpu.dcache.blocked::no_targets            9524                       # number of cycles access was blocked
system.cpu.dcache.blocked_cycles::no_mshrs     91082295                       # number of cycles access was blocked
system.cpu.dcache.blocked_cycles::no_targets    551540477                       # number of cycles access was blocked
system.cpu.dcache.cache_copies                      0                       # number of cache copies performed
system.cpu.dcache.demand_accesses             7108602                       # number of demand (read+write) accesses
system.cpu.dcache.demand_avg_miss_latency 68332.145867                       # average overall miss latency
system.cpu.dcache.demand_avg_mshr_miss_latency 72340.062125                       # average overall mshr miss latency
system.cpu.dcache.demand_hits                 7029249                       # number of demand (read+write) hits
system.cpu.dcache.demand_miss_latency      5422360771                       # number of demand (read+write) miss cycles
system.cpu.dcache.demand_miss_rate           0.011163                       # miss rate for demand accesses
system.cpu.dcache.demand_misses                 79353                       # number of demand (read+write) misses
system.cpu.dcache.demand_mshr_hits              39208                       # number of demand (read+write) MSHR hits
system.cpu.dcache.demand_mshr_miss_latency   2904091794                       # number of demand (read+write) MSHR miss cycles
system.cpu.dcache.demand_mshr_miss_rate      0.005647                       # mshr miss rate for demand accesses
system.cpu.dcache.demand_mshr_misses            40145                       # number of demand (read+write) MSHR misses
system.cpu.dcache.fast_writes                       0                       # number of fast writes performed
system.cpu.dcache.mshr_cap_events                   0                       # number of times MSHR cap was activated
system.cpu.dcache.no_allocate_misses                0                       # Number of misses that were no-allocate
system.cpu.dcache.occ_%::0                   0.965717                       # Average percentage of cache occupancy
system.cpu.dcache.occ_blocks::0            988.894469                       # Average occupied blocks per context
system.cpu.dcache.overall_accesses            7108602                       # number of overall (read+write) accesses
system.cpu.dcache.overall_avg_miss_latency 68332.145867                       # average overall miss latency
system.cpu.dcache.overall_avg_mshr_miss_latency 72340.062125                       # average overall mshr miss latency
system.cpu.dcache.overall_avg_mshr_uncacheable_latency     no_value                       # average overall mshr uncacheable latency
system.cpu.dcache.overall_hits                7029249                       # number of overall hits
system.cpu.dcache.overall_miss_latency     5422360771                       # number of overall miss cycles
system.cpu.dcache.overall_miss_rate          0.011163                       # miss rate for overall accesses
system.cpu.dcache.overall_misses                79353                       # number of overall misses
system.cpu.dcache.overall_mshr_hits             39208                       # number of overall MSHR hits
system.cpu.dcache.overall_mshr_miss_latency   2904091794                       # number of overall MSHR miss cycles
system.cpu.dcache.overall_mshr_miss_rate     0.005647                       # mshr miss rate for overall accesses
system.cpu.dcache.overall_mshr_misses           40145                       # number of overall MSHR misses
system.cpu.dcache.overall_mshr_uncacheable_latency            0                       # number of overall MSHR uncacheable cycles
system.cpu.dcache.overall_mshr_uncacheable_misses            0                       # number of overall MSHR uncacheable misses
system.cpu.dcache.prefetch_accuracy          no_value                       # ratio of good prefetches to total prefetches
system.cpu.dcache.prefetch_hits                     0                       # number of prefetched blocks that were accessed
system.cpu.dcache.replacements                  28099                       # number of replacements
system.cpu.dcache.sampled_refs                  29123                       # Sample count of references to valid blocks.
system.cpu.dcache.soft_prefetch_mshr_full            0                       # number of mshr full events for SW prefetching instrutions
system.cpu.dcache.tagsinuse                988.894469                       # Cycle average of tags in use
system.cpu.dcache.total_refs                  7052035                       # Total number of references to valid blocks.
system.cpu.dcache.warmup_cycle           505755185000                       # Cycle when the warmup percentage was hit.
system.cpu.dcache.writebacks                    25298                       # number of writebacks
system.cpu.dtb.data_accesses                        0                       # DTB accesses
system.cpu.dtb.data_acv                             0                       # DTB access violations
system.cpu.dtb.data_hits                            0                       # DTB hits
system.cpu.dtb.data_misses                          0                       # DTB misses
system.cpu.dtb.fetch_accesses                       0                       # ITB accesses
system.cpu.dtb.fetch_acv                            0                       # ITB acv
system.cpu.dtb.fetch_hits                           0                       # ITB hits
system.cpu.dtb.fetch_misses                         0                       # ITB misses
system.cpu.dtb.read_accesses                        0                       # DTB read accesses
system.cpu.dtb.read_acv                             0                       # DTB read access violations
system.cpu.dtb.read_hits                            0                       # DTB read hits
system.cpu.dtb.read_misses                          0                       # DTB read misses
system.cpu.dtb.write_accesses                       0                       # DTB write accesses
system.cpu.dtb.write_acv                            0                       # DTB write access violations
system.cpu.dtb.write_hits                           0                       # DTB write hits
system.cpu.dtb.write_misses                         0                       # DTB write misses
system.cpu.icache.ReadReq_accesses           11279533                       # number of ReadReq accesses(hits+misses)
system.cpu.icache.ReadReq_avg_miss_latency 14163.403168                       # average ReadReq miss latency
system.cpu.icache.ReadReq_avg_mshr_miss_latency 11371.568587                       # average ReadReq mshr miss latency
system.cpu.icache.ReadReq_hits               11203592                       # number of ReadReq hits
system.cpu.icache.ReadReq_miss_latency     1075583000                       # number of ReadReq miss cycles
system.cpu.icache.ReadReq_miss_rate          0.006733                       # miss rate for ReadReq accesses
system.cpu.icache.ReadReq_misses                75941                       # number of ReadReq misses
system.cpu.icache.ReadReq_mshr_hits              3192                       # number of ReadReq MSHR hits
system.cpu.icache.ReadReq_mshr_miss_latency    827247500                       # number of ReadReq MSHR miss cycles
system.cpu.icache.ReadReq_mshr_miss_rate     0.006449                       # mshr miss rate for ReadReq accesses
system.cpu.icache.ReadReq_mshr_misses           72747                       # number of ReadReq MSHR misses
system.cpu.icache.avg_blocked_cycles::no_mshrs     no_value                       # average number of cycles each access was blocked
system.cpu.icache.avg_blocked_cycles::no_targets        65000                       # average number of cycles each access was blocked
system.cpu.icache.avg_refs                 154.003381                       # Average number of references to valid blocks.
system.cpu.icache.blocked::no_mshrs                 0                       # number of cycles access was blocked
system.cpu.icache.blocked::no_targets               3                       # number of cycles access was blocked
system.cpu.icache.blocked_cycles::no_mshrs            0                       # number of cycles access was blocked
system.cpu.icache.blocked_cycles::no_targets       195000                       # number of cycles access was blocked
system.cpu.icache.cache_copies                      0                       # number of cache copies performed
system.cpu.icache.demand_accesses            11279533                       # number of demand (read+write) accesses
system.cpu.icache.demand_avg_miss_latency 14163.403168                       # average overall miss latency
system.cpu.icache.demand_avg_mshr_miss_latency 11371.568587                       # average overall mshr miss latency
system.cpu.icache.demand_hits                11203592                       # number of demand (read+write) hits
system.cpu.icache.demand_miss_latency      1075583000                       # number of demand (read+write) miss cycles
system.cpu.icache.demand_miss_rate           0.006733                       # miss rate for demand accesses
system.cpu.icache.demand_misses                 75941                       # number of demand (read+write) misses
system.cpu.icache.demand_mshr_hits               3192                       # number of demand (read+write) MSHR hits
system.cpu.icache.demand_mshr_miss_latency    827247500                       # number of demand (read+write) MSHR miss cycles
system.cpu.icache.demand_mshr_miss_rate      0.006449                       # mshr miss rate for demand accesses
system.cpu.icache.demand_mshr_misses            72747                       # number of demand (read+write) MSHR misses
system.cpu.icache.fast_writes                       0                       # number of fast writes performed
system.cpu.icache.mshr_cap_events                   0                       # number of times MSHR cap was activated
system.cpu.icache.no_allocate_misses                0                       # Number of misses that were no-allocate
system.cpu.icache.occ_%::0                   0.809748                       # Average percentage of cache occupancy
system.cpu.icache.occ_blocks::0            414.590855                       # Average occupied blocks per context
system.cpu.icache.overall_accesses           11279533                       # number of overall (read+write) accesses
system.cpu.icache.overall_avg_miss_latency 14163.403168                       # average overall miss latency
system.cpu.icache.overall_avg_mshr_miss_latency 11371.568587                       # average overall mshr miss latency
system.cpu.icache.overall_avg_mshr_uncacheable_latency     no_value                       # average overall mshr uncacheable latency
system.cpu.icache.overall_hits               11203592                       # number of overall hits
system.cpu.icache.overall_miss_latency     1075583000                       # number of overall miss cycles
system.cpu.icache.overall_miss_rate          0.006733                       # miss rate for overall accesses
system.cpu.icache.overall_misses                75941                       # number of overall misses
system.cpu.icache.overall_mshr_hits              3192                       # number of overall MSHR hits
system.cpu.icache.overall_mshr_miss_latency    827247500                       # number of overall MSHR miss cycles
system.cpu.icache.overall_mshr_miss_rate     0.006449                       # mshr miss rate for overall accesses
system.cpu.icache.overall_mshr_misses           72747                       # number of overall MSHR misses
system.cpu.icache.overall_mshr_uncacheable_latency            0                       # number of overall MSHR uncacheable cycles
system.cpu.icache.overall_mshr_uncacheable_misses            0                       # number of overall MSHR uncacheable misses
system.cpu.icache.prefetch_accuracy          no_value                       # ratio of good prefetches to total prefetches
system.cpu.icache.prefetch_hits                     0                       # number of prefetched blocks that were accessed
system.cpu.icache.replacements                  72308                       # number of replacements
system.cpu.icache.sampled_refs                  72749                       # Sample count of references to valid blocks.
system.cpu.icache.soft_prefetch_mshr_full            0                       # number of mshr full events for SW prefetching instrutions
system.cpu.icache.tagsinuse                414.590855                       # Cycle average of tags in use
system.cpu.icache.total_refs                 11203592                       # Total number of references to valid blocks.
system.cpu.icache.warmup_cycle                      0                       # Cycle when the warmup percentage was hit.
system.cpu.icache.writebacks                        0                       # number of writebacks
system.cpu.idle_fraction                            0                       # Percentage of idle cycles
system.cpu.itb.data_accesses                        0                       # DTB accesses
system.cpu.itb.data_acv                             0                       # DTB access violations
system.cpu.itb.data_hits                            0                       # DTB hits
system.cpu.itb.data_misses                          0                       # DTB misses
system.cpu.itb.fetch_accesses                       2                       # ITB accesses
system.cpu.itb.fetch_acv                            0                       # ITB acv
system.cpu.itb.fetch_hits                           2                       # ITB hits
system.cpu.itb.fetch_misses                         0                       # ITB misses
system.cpu.itb.read_accesses                        0                       # DTB read accesses
system.cpu.itb.read_acv                             0                       # DTB read access violations
system.cpu.itb.read_hits                            0                       # DTB read hits
system.cpu.itb.read_misses                          0                       # DTB read misses
system.cpu.itb.write_accesses                       0                       # DTB write accesses
system.cpu.itb.write_acv                            0                       # DTB write access violations
system.cpu.itb.write_hits                           0                       # DTB write hits
system.cpu.itb.write_misses                         0                       # DTB write misses
system.cpu.not_idle_fraction                        1                       # Percentage of non-idle cycles
system.cpu.numCycles                                2                       # number of cpu cycles simulated
system.cpu.num_insts                                2                       # Number of instructions executed
system.cpu.num_refs                                 0                       # Number of memory references
system.cpu.workload.PROG:num_syscalls               0                       # Number of system calls
system.l2.HardPFReq_avg_mshr_miss_latency 64612.664293                       # average HardPFReq mshr miss latency
system.l2.HardPFReq_mshr_miss_latency      1098027617                       # number of HardPFReq MSHR miss cycles
system.l2.HardPFReq_mshr_miss_rate                inf                       # mshr miss rate for HardPFReq accesses
system.l2.HardPFReq_mshr_misses                 16994                       # number of HardPFReq MSHR misses
system.l2.ReadExReq_accesses                    15244                       # number of ReadExReq accesses(hits+misses)
system.l2.ReadExReq_avg_miss_latency     117136.069963                       # average ReadExReq miss latency
system.l2.ReadExReq_avg_mshr_miss_latency 101865.502123                       # average ReadExReq mshr miss latency
system.l2.ReadExReq_hits                         1351                       # number of ReadExReq hits
system.l2.ReadExReq_miss_latency           1627371420                       # number of ReadExReq miss cycles
system.l2.ReadExReq_miss_rate                0.911375                       # miss rate for ReadExReq accesses
system.l2.ReadExReq_misses                      13893                       # number of ReadExReq misses
system.l2.ReadExReq_mshr_miss_latency      1415217421                       # number of ReadExReq MSHR miss cycles
system.l2.ReadExReq_mshr_miss_rate           0.911375                       # mshr miss rate for ReadExReq accesses
system.l2.ReadExReq_mshr_misses                 13893                       # number of ReadExReq MSHR misses
system.l2.ReadReq_accesses                      86628                       # number of ReadReq accesses(hits+misses)
system.l2.ReadReq_avg_miss_latency       68145.394835                       # average ReadReq miss latency
system.l2.ReadReq_avg_mshr_miss_latency  52523.070031                       # average ReadReq mshr miss latency
system.l2.ReadReq_hits                          79929                       # number of ReadReq hits
system.l2.ReadReq_miss_latency              456506000                       # number of ReadReq miss cycles
system.l2.ReadReq_miss_rate                  0.077331                       # miss rate for ReadReq accesses
system.l2.ReadReq_misses                         6699                       # number of ReadReq misses
system.l2.ReadReq_mshr_miss_latency         351747000                       # number of ReadReq MSHR miss cycles
system.l2.ReadReq_mshr_miss_rate             0.077308                       # mshr miss rate for ReadReq accesses
system.l2.ReadReq_mshr_misses                    6697                       # number of ReadReq MSHR misses
system.l2.UpgradeReq_accesses                   11022                       # number of UpgradeReq accesses(hits+misses)
system.l2.UpgradeReq_avg_miss_latency    60157.602885                       # average UpgradeReq miss latency
system.l2.UpgradeReq_avg_mshr_miss_latency 44623.762929                       # average UpgradeReq mshr miss latency
system.l2.UpgradeReq_miss_latency           663057099                       # number of UpgradeReq miss cycles
system.l2.UpgradeReq_miss_rate                      1                       # miss rate for UpgradeReq accesses
system.l2.UpgradeReq_misses                     11022                       # number of UpgradeReq misses
system.l2.UpgradeReq_mshr_miss_latency      491843115                       # number of UpgradeReq MSHR miss cycles
system.l2.UpgradeReq_mshr_miss_rate                 1                       # mshr miss rate for UpgradeReq accesses
system.l2.UpgradeReq_mshr_misses                11022                       # number of UpgradeReq MSHR misses
system.l2.Writeback_accesses                    25298                       # number of Writeback accesses(hits+misses)
system.l2.Writeback_hits                        25298                       # number of Writeback hits
system.l2.avg_blocked_cycles::no_mshrs       no_value                       # average number of cycles each access was blocked
system.l2.avg_blocked_cycles::no_targets     no_value                       # average number of cycles each access was blocked
system.l2.avg_refs                           5.591884                       # Average number of references to valid blocks.
system.l2.blocked::no_mshrs                         0                       # number of cycles access was blocked
system.l2.blocked::no_targets                       0                       # number of cycles access was blocked
system.l2.blocked_cycles::no_mshrs                  0                       # number of cycles access was blocked
system.l2.blocked_cycles::no_targets                0                       # number of cycles access was blocked
system.l2.cache_copies                              0                       # number of cache copies performed
system.l2.demand_accesses                      101872                       # number of demand (read+write) accesses
system.l2.demand_avg_miss_latency        101198.398407                       # average overall miss latency
system.l2.demand_avg_mshr_miss_latency   85816.630452                       # average overall mshr miss latency
system.l2.demand_hits                           81280                       # number of demand (read+write) hits
system.l2.demand_miss_latency              2083877420                       # number of demand (read+write) miss cycles
system.l2.demand_miss_rate                   0.202136                       # miss rate for demand accesses
system.l2.demand_misses                         20592                       # number of demand (read+write) misses
system.l2.demand_mshr_hits                          0                       # number of demand (read+write) MSHR hits
system.l2.demand_mshr_miss_latency         1766964421                       # number of demand (read+write) MSHR miss cycles
system.l2.demand_mshr_miss_rate              0.202116                       # mshr miss rate for demand accesses
system.l2.demand_mshr_misses                    20590                       # number of demand (read+write) MSHR misses
system.l2.fast_writes                               0                       # number of fast writes performed
system.l2.mshr_cap_events                           0                       # number of times MSHR cap was activated
system.l2.no_allocate_misses                        0                       # Number of misses that were no-allocate
system.l2.occ_%::0                           0.240164                       # Average percentage of cache occupancy
system.l2.occ_%::1                           0.076145                       # Average percentage of cache occupancy
system.l2.occ_blocks::0                   3934.841918                       # Average occupied blocks per context
system.l2.occ_blocks::1                   1247.562646                       # Average occupied blocks per context
system.l2.overall_accesses                     101872                       # number of overall (read+write) accesses
system.l2.overall_avg_miss_latency       101198.398407                       # average overall miss latency
system.l2.overall_avg_mshr_miss_latency  76229.034642                       # average overall mshr miss latency
system.l2.overall_avg_mshr_uncacheable_latency     no_value                       # average overall mshr uncacheable latency
system.l2.overall_hits                          81280                       # number of overall hits
system.l2.overall_miss_latency             2083877420                       # number of overall miss cycles
system.l2.overall_miss_rate                  0.202136                       # miss rate for overall accesses
system.l2.overall_misses                        20592                       # number of overall misses
system.l2.overall_mshr_hits                         0                       # number of overall MSHR hits
system.l2.overall_mshr_miss_latency        2864992038                       # number of overall MSHR miss cycles
system.l2.overall_mshr_miss_rate             0.368934                       # mshr miss rate for overall accesses
system.l2.overall_mshr_misses                   37584                       # number of overall MSHR misses
system.l2.overall_mshr_uncacheable_latency            0                       # number of overall MSHR uncacheable cycles
system.l2.overall_mshr_uncacheable_misses            0                       # number of overall MSHR uncacheable misses
system.l2.prefetch_accuracy                  0.946981                       # ratio of good prefetches to total prefetches
system.l2.prefetch_hits                         16093                       # number of prefetched blocks that were accessed
system.l2.prefetcher.num_hwpf_already_in_prefetcher            6                       # number of hwpf that were already in the prefetch queue
system.l2.prefetcher.num_hwpf_evicted             124                       # number of hwpf removed due to no buffer left
system.l2.prefetcher.num_hwpf_identified        17233                       # number of hwpf identified
system.l2.prefetcher.num_hwpf_issued            17056                       # number of hwpf issued
system.l2.prefetcher.num_hwpf_removed_MSHR_hit           47                       # number of hwpf removed because MSHR allocated
system.l2.prefetcher.num_hwpf_span_page             0                       # number of hwpf spanning a virtual page
system.l2.prefetcher.num_hwpf_squashed_from_miss            0                       # number of hwpf that got squashed due to a miss aborting calculation time
system.l2.replacements                           9171                       # number of replacements
system.l2.sampled_refs                          17348                       # Sample count of references to valid blocks.
system.l2.soft_prefetch_mshr_full                   0                       # number of mshr full events for SW prefetching instrutions
system.l2.tagsinuse                       5182.404564                       # Cycle average of tags in use
system.l2.total_refs                            97008                       # Total number of references to valid blocks.
system.l2.warmup_cycle                              0                       # Cycle when the warmup percentage was hit.
system.l2.writebacks                             8769                       # number of writebacks
system.switch_cpus.dtb.data_accesses          3533281                       # DTB accesses
system.switch_cpus.dtb.data_acv                     0                       # DTB access violations
system.switch_cpus.dtb.data_hits              3533187                       # DTB hits
system.switch_cpus.dtb.data_misses                 94                       # DTB misses
system.switch_cpus.dtb.fetch_accesses               0                       # ITB accesses
system.switch_cpus.dtb.fetch_acv                    0                       # ITB acv
system.switch_cpus.dtb.fetch_hits                   0                       # ITB hits
system.switch_cpus.dtb.fetch_misses                 0                       # ITB misses
system.switch_cpus.dtb.read_accesses          2118869                       # DTB read accesses
system.switch_cpus.dtb.read_acv                     0                       # DTB read access violations
system.switch_cpus.dtb.read_hits              2118830                       # DTB read hits
system.switch_cpus.dtb.read_misses                 39                       # DTB read misses
system.switch_cpus.dtb.write_accesses         1414412                       # DTB write accesses
system.switch_cpus.dtb.write_acv                    0                       # DTB write access violations
system.switch_cpus.dtb.write_hits             1414357                       # DTB write hits
system.switch_cpus.dtb.write_misses                55                       # DTB write misses
system.switch_cpus.idle_fraction                    1                       # Percentage of idle cycles
system.switch_cpus.itb.data_accesses                0                       # DTB accesses
system.switch_cpus.itb.data_acv                     0                       # DTB access violations
system.switch_cpus.itb.data_hits                    0                       # DTB hits
system.switch_cpus.itb.data_misses                  0                       # DTB misses
system.switch_cpus.itb.fetch_accesses        10000112                       # ITB accesses
system.switch_cpus.itb.fetch_acv                    0                       # ITB acv
system.switch_cpus.itb.fetch_hits            10000095                       # ITB hits
system.switch_cpus.itb.fetch_misses                17                       # ITB misses
system.switch_cpus.itb.read_accesses                0                       # DTB read accesses
system.switch_cpus.itb.read_acv                     0                       # DTB read access violations
system.switch_cpus.itb.read_hits                    0                       # DTB read hits
system.switch_cpus.itb.read_misses                  0                       # DTB read misses
system.switch_cpus.itb.write_accesses               0                       # DTB write accesses
system.switch_cpus.itb.write_acv                    0                       # DTB write access violations
system.switch_cpus.itb.write_hits                   0                       # DTB write hits
system.switch_cpus.itb.write_misses                 0                       # DTB write misses
system.switch_cpus.not_idle_fraction                0                       # Percentage of non-idle cycles
system.switch_cpus.numCycles                 30166355                       # number of cpu cycles simulated
system.switch_cpus.num_insts                 10000001                       # Number of instructions executed
system.switch_cpus.num_refs                   3723635                       # Number of memory references
system.switch_cpus_1.BPredUnit.BTBCorrect            0                       # Number of correct BTB predictions (this stat may not work properly.
system.switch_cpus_1.BPredUnit.BTBHits         267100                       # Number of BTB hits
system.switch_cpus_1.BPredUnit.BTBLookups       434928                       # Number of BTB lookups
system.switch_cpus_1.BPredUnit.RASInCorrect            7                       # Number of incorrect RAS predictions.
system.switch_cpus_1.BPredUnit.condIncorrect        40195                       # Number of conditional branches incorrect
system.switch_cpus_1.BPredUnit.condPredicted       498707                       # Number of conditional branches predicted
system.switch_cpus_1.BPredUnit.lookups         516065                       # Number of BP lookups
system.switch_cpus_1.BPredUnit.usedRAS           5840                       # Number of times the RAS was used to get a target.
system.switch_cpus_1.commit.COM:branches       363562                       # Number of branches committed
system.switch_cpus_1.commit.COM:bw_lim_events       373417                       # number cycles where commit BW limit reached
system.switch_cpus_1.commit.COM:bw_limited            0                       # number of insts not committed due to BW limits
system.switch_cpus_1.commit.COM:committed_per_cycle::samples      6314587                       # Number of insts commited each cycle
system.switch_cpus_1.commit.COM:committed_per_cycle::mean     1.609849                       # Number of insts commited each cycle
system.switch_cpus_1.commit.COM:committed_per_cycle::stdev     2.379073                       # Number of insts commited each cycle
system.switch_cpus_1.commit.COM:committed_per_cycle::underflows            0      0.00%      0.00% # Number of insts commited each cycle
system.switch_cpus_1.commit.COM:committed_per_cycle::0      3367072     53.32%     53.32% # Number of insts commited each cycle
system.switch_cpus_1.commit.COM:committed_per_cycle::1       902155     14.29%     67.61% # Number of insts commited each cycle
system.switch_cpus_1.commit.COM:committed_per_cycle::2       414988      6.57%     74.18% # Number of insts commited each cycle
system.switch_cpus_1.commit.COM:committed_per_cycle::3       402532      6.37%     80.56% # Number of insts commited each cycle
system.switch_cpus_1.commit.COM:committed_per_cycle::4       403918      6.40%     86.95% # Number of insts commited each cycle
system.switch_cpus_1.commit.COM:committed_per_cycle::5       192017      3.04%     89.99% # Number of insts commited each cycle
system.switch_cpus_1.commit.COM:committed_per_cycle::6       146704      2.32%     92.32% # Number of insts commited each cycle
system.switch_cpus_1.commit.COM:committed_per_cycle::7       111784      1.77%     94.09% # Number of insts commited each cycle
system.switch_cpus_1.commit.COM:committed_per_cycle::8       373417      5.91%    100.00% # Number of insts commited each cycle
system.switch_cpus_1.commit.COM:committed_per_cycle::overflows            0      0.00%    100.00% # Number of insts commited each cycle
system.switch_cpus_1.commit.COM:committed_per_cycle::min_value            0                       # Number of insts commited each cycle
system.switch_cpus_1.commit.COM:committed_per_cycle::max_value            8                       # Number of insts commited each cycle
system.switch_cpus_1.commit.COM:committed_per_cycle::total      6314587                       # Number of insts commited each cycle
system.switch_cpus_1.commit.COM:count        10165532                       # Number of instructions committed
system.switch_cpus_1.commit.COM:loads         2313029                       # Number of loads committed
system.switch_cpus_1.commit.COM:membars             0                       # Number of memory barriers committed
system.switch_cpus_1.commit.COM:refs          3782914                       # Number of memory references committed
system.switch_cpus_1.commit.COM:swp_count            0                       # Number of s/w prefetches committed
system.switch_cpus_1.commit.branchMispredicts        40166                       # The number of times a branch was mispredicted
system.switch_cpus_1.commit.commitCommittedInsts     10165532                       # The number of committed instructions
system.switch_cpus_1.commit.commitSquashedInsts      1365299                       # The number of squashed insts skipped by commit
system.switch_cpus_1.committedInsts          10000007                       # Number of Instructions Simulated
system.switch_cpus_1.committedInsts_total     10000007                       # Number of Instructions Simulated
system.switch_cpus_1.cpi                     0.674572                       # CPI: Cycles Per Instruction
system.switch_cpus_1.cpi_total               0.674572                       # CPI: Total CPI of All Threads
system.switch_cpus_1.decode.DECODE:BlockedCycles       978139                       # Number of cycles decode is blocked
system.switch_cpus_1.decode.DECODE:BranchMispred           31                       # Number of times decode detected a branch misprediction
system.switch_cpus_1.decode.DECODE:BranchResolved        11464                       # Number of times decode resolved a branch
system.switch_cpus_1.decode.DECODE:DecodedInsts     13507785                       # Number of instructions handled by decode
system.switch_cpus_1.decode.DECODE:IdleCycles      3392696                       # Number of cycles decode is idle
system.switch_cpus_1.decode.DECODE:RunCycles      1931492                       # Number of cycles decode is running
system.switch_cpus_1.decode.DECODE:SquashCycles       256604                       # Number of cycles decode is squashing
system.switch_cpus_1.decode.DECODE:SquashedInsts           83                       # Number of squashed instructions handled by decode
system.switch_cpus_1.decode.DECODE:UnblockCycles        12259                       # Number of cycles decode is unblocking
system.switch_cpus_1.dtb.data_accesses        4091033                       # DTB accesses
system.switch_cpus_1.dtb.data_acv                   0                       # DTB access violations
system.switch_cpus_1.dtb.data_hits            4089337                       # DTB hits
system.switch_cpus_1.dtb.data_misses             1696                       # DTB misses
system.switch_cpus_1.dtb.fetch_accesses             0                       # ITB accesses
system.switch_cpus_1.dtb.fetch_acv                  0                       # ITB acv
system.switch_cpus_1.dtb.fetch_hits                 0                       # ITB hits
system.switch_cpus_1.dtb.fetch_misses               0                       # ITB misses
system.switch_cpus_1.dtb.read_accesses        2495876                       # DTB read accesses
system.switch_cpus_1.dtb.read_acv                   0                       # DTB read access violations
system.switch_cpus_1.dtb.read_hits            2495567                       # DTB read hits
system.switch_cpus_1.dtb.read_misses              309                       # DTB read misses
system.switch_cpus_1.dtb.write_accesses       1595157                       # DTB write accesses
system.switch_cpus_1.dtb.write_acv                  0                       # DTB write access violations
system.switch_cpus_1.dtb.write_hits           1593770                       # DTB write hits
system.switch_cpus_1.dtb.write_misses            1387                       # DTB write misses
system.switch_cpus_1.fetch.Branches            516065                       # Number of branches that fetch encountered
system.switch_cpus_1.fetch.CacheLines         1279436                       # Number of cache lines fetched
system.switch_cpus_1.fetch.Cycles             3248410                       # Number of cycles fetch has run and was not squashing or blocked
system.switch_cpus_1.fetch.IcacheSquashes        62102                       # Number of outstanding Icache misses that were squashed
system.switch_cpus_1.fetch.Insts             13680182                       # Number of instructions fetch has processed
system.switch_cpus_1.fetch.SquashCycles        168071                       # Number of cycles fetch has spent squashing
system.switch_cpus_1.fetch.branchRate        0.076503                       # Number of branch fetches per cycle
system.switch_cpus_1.fetch.icacheStallCycles      1279436                       # Number of cycles fetch is stalled on an Icache miss
system.switch_cpus_1.fetch.predictedBranches       272940                       # Number of branches that fetch has predicted taken
system.switch_cpus_1.fetch.rate              2.027978                       # Number of inst fetches per cycle
system.switch_cpus_1.fetch.rateDist::samples      6571191                       # Number of instructions fetched each cycle (Total)
system.switch_cpus_1.fetch.rateDist::mean     2.081842                       # Number of instructions fetched each cycle (Total)
system.switch_cpus_1.fetch.rateDist::stdev     3.360794                       # Number of instructions fetched each cycle (Total)
system.switch_cpus_1.fetch.rateDist::underflows            0      0.00%      0.00% # Number of instructions fetched each cycle (Total)
system.switch_cpus_1.fetch.rateDist::0        4602236     70.04%     70.04% # Number of instructions fetched each cycle (Total)
system.switch_cpus_1.fetch.rateDist::1          39199      0.60%     70.63% # Number of instructions fetched each cycle (Total)
system.switch_cpus_1.fetch.rateDist::2          76292      1.16%     71.79% # Number of instructions fetched each cycle (Total)
system.switch_cpus_1.fetch.rateDist::3          63719      0.97%     72.76% # Number of instructions fetched each cycle (Total)
system.switch_cpus_1.fetch.rateDist::4         173337      2.64%     75.40% # Number of instructions fetched each cycle (Total)
system.switch_cpus_1.fetch.rateDist::5          60809      0.93%     76.33% # Number of instructions fetched each cycle (Total)
system.switch_cpus_1.fetch.rateDist::6          52749      0.80%     77.13% # Number of instructions fetched each cycle (Total)
system.switch_cpus_1.fetch.rateDist::7          39445      0.60%     77.73% # Number of instructions fetched each cycle (Total)
system.switch_cpus_1.fetch.rateDist::8        1463405     22.27%    100.00% # Number of instructions fetched each cycle (Total)
system.switch_cpus_1.fetch.rateDist::overflows            0      0.00%    100.00% # Number of instructions fetched each cycle (Total)
system.switch_cpus_1.fetch.rateDist::min_value            0                       # Number of instructions fetched each cycle (Total)
system.switch_cpus_1.fetch.rateDist::max_value            8                       # Number of instructions fetched each cycle (Total)
system.switch_cpus_1.fetch.rateDist::total      6571191                       # Number of instructions fetched each cycle (Total)
system.switch_cpus_1.idleCycles                174534                       # Total number of cycles that the CPU has spent unscheduled due to idling
system.switch_cpus_1.iew.EXEC:branches         380573                       # Number of branches executed
system.switch_cpus_1.iew.EXEC:nop              179296                       # number of nop insts executed
system.switch_cpus_1.iew.EXEC:rate           1.619423                       # Inst execution rate
system.switch_cpus_1.iew.EXEC:refs            4316474                       # number of memory reference insts executed
system.switch_cpus_1.iew.EXEC:stores          1648069                       # Number of stores executed
system.switch_cpus_1.iew.EXEC:swp                   0                       # number of swp insts executed
system.switch_cpus_1.iew.WB:consumers         7586598                       # num instructions consuming a value
system.switch_cpus_1.iew.WB:count            10584881                       # cumulative count of insts written-back
system.switch_cpus_1.iew.WB:fanout           0.753458                       # average fanout of values written-back
system.switch_cpus_1.iew.WB:penalized               0                       # number of instrctions required to write to 'other' IQ
system.switch_cpus_1.iew.WB:penalized_rate            0                       # fraction of instructions written-back that wrote to 'other' IQ
system.switch_cpus_1.iew.WB:producers         5716184                       # num instructions producing a value
system.switch_cpus_1.iew.WB:rate             1.569124                       # insts written-back per cycle
system.switch_cpus_1.iew.WB:sent             10590077                       # cumulative count of insts sent to commit
system.switch_cpus_1.iew.branchMispredicts        42182                       # Number of branch mispredicts detected at execute
system.switch_cpus_1.iew.iewBlockCycles         65262                       # Number of cycles IEW is blocking
system.switch_cpus_1.iew.iewDispLoadInsts      2747094                       # Number of dispatched load instructions
system.switch_cpus_1.iew.iewDispNonSpecInsts            0                       # Number of dispatched non-speculative instructions
system.switch_cpus_1.iew.iewDispSquashedInsts       449550                       # Number of squashed instructions skipped by dispatch
system.switch_cpus_1.iew.iewDispStoreInsts      1849261                       # Number of dispatched store instructions
system.switch_cpus_1.iew.iewDispatchedInsts     11533023                       # Number of instructions dispatched to IQ
system.switch_cpus_1.iew.iewExecLoadInsts      2668405                       # Number of load instructions executed
system.switch_cpus_1.iew.iewExecSquashedInsts       134921                       # Number of squashed instructions skipped in execute
system.switch_cpus_1.iew.iewExecutedInsts     10924185                       # Number of executed instructions
system.switch_cpus_1.iew.iewIQFullEvents         1505                       # Number of times the IQ has become full, causing a stall
system.switch_cpus_1.iew.iewIdleCycles              0                       # Number of cycles IEW is idle
system.switch_cpus_1.iew.iewLSQFullEvents          208                       # Number of times the LSQ has become full, causing a stall
system.switch_cpus_1.iew.iewSquashCycles       256604                       # Number of cycles IEW is squashing
system.switch_cpus_1.iew.iewUnblockCycles         4505                       # Number of cycles IEW is unblocking
system.switch_cpus_1.iew.lsq.thread.0.blockedLoads            0                       # Number of blocked loads due to partial load-store forwarding
system.switch_cpus_1.iew.lsq.thread.0.cacheBlocked       327834                       # Number of times an access to memory failed due to the cache being blocked
system.switch_cpus_1.iew.lsq.thread.0.forwLoads        36786                       # Number of loads that had data forwarded from stores
system.switch_cpus_1.iew.lsq.thread.0.ignoredResponses            7                       # Number of memory responses ignored because the instruction is squashed
system.switch_cpus_1.iew.lsq.thread.0.invAddrLoads            0                       # Number of loads ignored due to an invalid address
system.switch_cpus_1.iew.lsq.thread.0.invAddrSwpfs            0                       # Number of software prefetches ignored due to an invalid address
system.switch_cpus_1.iew.lsq.thread.0.memOrderViolation         3075                       # Number of memory ordering violations
system.switch_cpus_1.iew.lsq.thread.0.rescheduledLoads            0                       # Number of loads that were rescheduled
system.switch_cpus_1.iew.lsq.thread.0.squashedLoads       434041                       # Number of loads squashed
system.switch_cpus_1.iew.lsq.thread.0.squashedStores       379365                       # Number of stores squashed
system.switch_cpus_1.iew.memOrderViolationEvents         3075                       # Number of memory order violations
system.switch_cpus_1.iew.predictedNotTakenIncorrect         3511                       # Number of branches that were predicted not taken incorrectly
system.switch_cpus_1.iew.predictedTakenIncorrect        38671                       # Number of branches that were predicted taken incorrectly
system.switch_cpus_1.ipc                     1.482421                       # IPC: Instructions Per Cycle
system.switch_cpus_1.ipc_total               1.482421                       # IPC: Total IPC of All Threads
system.switch_cpus_1.iq.ISSUE:FU_type_0::No_OpClass            0      0.00%      0.00% # Type of FU issued
system.switch_cpus_1.iq.ISSUE:FU_type_0::IntAlu      4094730     37.03%     37.03% # Type of FU issued
system.switch_cpus_1.iq.ISSUE:FU_type_0::IntMult       389084      3.52%     40.54% # Type of FU issued
system.switch_cpus_1.iq.ISSUE:FU_type_0::IntDiv            0      0.00%     40.54% # Type of FU issued
system.switch_cpus_1.iq.ISSUE:FU_type_0::FloatAdd      1331331     12.04%     52.58% # Type of FU issued
system.switch_cpus_1.iq.ISSUE:FU_type_0::FloatCmp            0      0.00%     52.58% # Type of FU issued
system.switch_cpus_1.iq.ISSUE:FU_type_0::FloatCvt        18202      0.16%     52.75% # Type of FU issued
system.switch_cpus_1.iq.ISSUE:FU_type_0::FloatMult       851397      7.70%     60.45% # Type of FU issued
system.switch_cpus_1.iq.ISSUE:FU_type_0::FloatDiv         6162      0.06%     60.50% # Type of FU issued
system.switch_cpus_1.iq.ISSUE:FU_type_0::FloatSqrt            0      0.00%     60.50% # Type of FU issued
system.switch_cpus_1.iq.ISSUE:FU_type_0::MemRead      2699889     24.41%     84.91% # Type of FU issued
system.switch_cpus_1.iq.ISSUE:FU_type_0::MemWrite      1668312     15.09%    100.00% # Type of FU issued
system.switch_cpus_1.iq.ISSUE:FU_type_0::IprAccess            0      0.00%    100.00% # Type of FU issued
system.switch_cpus_1.iq.ISSUE:FU_type_0::InstPrefetch            0      0.00%    100.00% # Type of FU issued
system.switch_cpus_1.iq.ISSUE:FU_type_0::total     11059107                       # Type of FU issued
system.switch_cpus_1.iq.ISSUE:fu_busy_cnt       391959                       # FU busy when requested
system.switch_cpus_1.iq.ISSUE:fu_busy_rate     0.035442                       # FU busy rate (busy events/executed inst)
system.switch_cpus_1.iq.ISSUE:fu_full::No_OpClass            0      0.00%      0.00% # attempts to use FU when none available
system.switch_cpus_1.iq.ISSUE:fu_full::IntAlu        51535     13.15%     13.15% # attempts to use FU when none available
system.switch_cpus_1.iq.ISSUE:fu_full::IntMult        52742     13.46%     26.60% # attempts to use FU when none available
system.switch_cpus_1.iq.ISSUE:fu_full::IntDiv            0      0.00%     26.60% # attempts to use FU when none available
system.switch_cpus_1.iq.ISSUE:fu_full::FloatAdd        16473      4.20%     30.81% # attempts to use FU when none available
system.switch_cpus_1.iq.ISSUE:fu_full::FloatCmp            0      0.00%     30.81% # attempts to use FU when none available
system.switch_cpus_1.iq.ISSUE:fu_full::FloatCvt            0      0.00%     30.81% # attempts to use FU when none available
system.switch_cpus_1.iq.ISSUE:fu_full::FloatMult        96818     24.70%     55.51% # attempts to use FU when none available
system.switch_cpus_1.iq.ISSUE:fu_full::FloatDiv            0      0.00%     55.51% # attempts to use FU when none available
system.switch_cpus_1.iq.ISSUE:fu_full::FloatSqrt            0      0.00%     55.51% # attempts to use FU when none available
system.switch_cpus_1.iq.ISSUE:fu_full::MemRead       122114     31.15%     86.66% # attempts to use FU when none available
system.switch_cpus_1.iq.ISSUE:fu_full::MemWrite        52277     13.34%    100.00% # attempts to use FU when none available
system.switch_cpus_1.iq.ISSUE:fu_full::IprAccess            0      0.00%    100.00% # attempts to use FU when none available
system.switch_cpus_1.iq.ISSUE:fu_full::InstPrefetch            0      0.00%    100.00% # attempts to use FU when none available
system.switch_cpus_1.iq.ISSUE:issued_per_cycle::samples      6571191                       # Number of insts issued each cycle
system.switch_cpus_1.iq.ISSUE:issued_per_cycle::mean     1.682968                       # Number of insts issued each cycle
system.switch_cpus_1.iq.ISSUE:issued_per_cycle::stdev     2.010997                       # Number of insts issued each cycle
system.switch_cpus_1.iq.ISSUE:issued_per_cycle::underflows            0      0.00%      0.00% # Number of insts issued each cycle
system.switch_cpus_1.iq.ISSUE:issued_per_cycle::0      2909461     44.28%     44.28% # Number of insts issued each cycle
system.switch_cpus_1.iq.ISSUE:issued_per_cycle::1      1003177     15.27%     59.54% # Number of insts issued each cycle
system.switch_cpus_1.iq.ISSUE:issued_per_cycle::2       671490     10.22%     69.76% # Number of insts issued each cycle
system.switch_cpus_1.iq.ISSUE:issued_per_cycle::3       588949      8.96%     78.72% # Number of insts issued each cycle
system.switch_cpus_1.iq.ISSUE:issued_per_cycle::4       635585      9.67%     88.40% # Number of insts issued each cycle
system.switch_cpus_1.iq.ISSUE:issued_per_cycle::5       360172      5.48%     93.88% # Number of insts issued each cycle
system.switch_cpus_1.iq.ISSUE:issued_per_cycle::6       255927      3.89%     97.77% # Number of insts issued each cycle
system.switch_cpus_1.iq.ISSUE:issued_per_cycle::7       104099      1.58%     99.36% # Number of insts issued each cycle
system.switch_cpus_1.iq.ISSUE:issued_per_cycle::8        42331      0.64%    100.00% # Number of insts issued each cycle
system.switch_cpus_1.iq.ISSUE:issued_per_cycle::overflows            0      0.00%    100.00% # Number of insts issued each cycle
system.switch_cpus_1.iq.ISSUE:issued_per_cycle::min_value            0                       # Number of insts issued each cycle
system.switch_cpus_1.iq.ISSUE:issued_per_cycle::max_value            8                       # Number of insts issued each cycle
system.switch_cpus_1.iq.ISSUE:issued_per_cycle::total      6571191                       # Number of insts issued each cycle
system.switch_cpus_1.iq.ISSUE:rate           1.639425                       # Inst issue rate
system.switch_cpus_1.iq.iqInstsAdded         11353727                       # Number of instructions added to the IQ (excludes non-spec)
system.switch_cpus_1.iq.iqInstsIssued        11059107                       # Number of instructions issued
system.switch_cpus_1.iq.iqSquashedInstsExamined      1353537                       # Number of squashed instructions iterated over during squash; mainly for profiling
system.switch_cpus_1.iq.iqSquashedInstsIssued        36295                       # Number of squashed instructions issued
system.switch_cpus_1.iq.iqSquashedOperandsExamined       905619                       # Number of squashed operands that are examined and possibly removed from graph
system.switch_cpus_1.itb.data_accesses              0                       # DTB accesses
system.switch_cpus_1.itb.data_acv                   0                       # DTB access violations
system.switch_cpus_1.itb.data_hits                  0                       # DTB hits
system.switch_cpus_1.itb.data_misses                0                       # DTB misses
system.switch_cpus_1.itb.fetch_accesses       1279458                       # ITB accesses
system.switch_cpus_1.itb.fetch_acv                  0                       # ITB acv
system.switch_cpus_1.itb.fetch_hits           1279436                       # ITB hits
system.switch_cpus_1.itb.fetch_misses              22                       # ITB misses
system.switch_cpus_1.itb.read_accesses              0                       # DTB read accesses
system.switch_cpus_1.itb.read_acv                   0                       # DTB read access violations
system.switch_cpus_1.itb.read_hits                  0                       # DTB read hits
system.switch_cpus_1.itb.read_misses                0                       # DTB read misses
system.switch_cpus_1.itb.write_accesses             0                       # DTB write accesses
system.switch_cpus_1.itb.write_acv                  0                       # DTB write access violations
system.switch_cpus_1.itb.write_hits                 0                       # DTB write hits
system.switch_cpus_1.itb.write_misses               0                       # DTB write misses
system.switch_cpus_1.memDep0.conflictingLoads       614363                       # Number of conflicting loads.
system.switch_cpus_1.memDep0.conflictingStores       456350                       # Number of conflicting stores.
system.switch_cpus_1.memDep0.insertedLoads      2747094                       # Number of loads inserted to the mem dependence unit.
system.switch_cpus_1.memDep0.insertedStores      1849261                       # Number of stores inserted to the mem dependence unit.
system.switch_cpus_1.numCycles                6745725                       # number of cpu cycles simulated
system.switch_cpus_1.rename.RENAME:BlockCycles       486533                       # Number of cycles rename is blocking
system.switch_cpus_1.rename.RENAME:CommittedMaps      8012480                       # Number of HB maps that are committed
system.switch_cpus_1.rename.RENAME:IQFullEvents        58196                       # Number of times rename has blocked due to IQ full
system.switch_cpus_1.rename.RENAME:IdleCycles      3518471                       # Number of cycles rename is idle
system.switch_cpus_1.rename.RENAME:LSQFullEvents       434265                       # Number of times rename has blocked due to LSQ full
system.switch_cpus_1.rename.RENAME:ROBFullEvents          186                       # Number of times rename has blocked due to ROB full
system.switch_cpus_1.rename.RENAME:RenameLookups     19736620                       # Number of register rename lookups that rename has made
system.switch_cpus_1.rename.RENAME:RenamedInsts     13045519                       # Number of instructions processed by rename
system.switch_cpus_1.rename.RENAME:RenamedOperands      9904267                       # Number of destination operands rename has renamed
system.switch_cpus_1.rename.RENAME:RunCycles      1814359                       # Number of cycles rename is running
system.switch_cpus_1.rename.RENAME:SquashCycles       256604                       # Number of cycles rename is squashing
system.switch_cpus_1.rename.RENAME:UnblockCycles       495223                       # Number of cycles rename is unblocking
system.switch_cpus_1.rename.RENAME:UndoneMaps      1891730                       # Number of HB maps that are undone due to squashing
system.switch_cpus_1.rename.RENAME:serializeStallCycles            0                       # count of cycles rename stalled for serializing inst
system.switch_cpus_1.rename.RENAME:serializingInsts            0                       # count of serializing insts renamed
system.switch_cpus_1.rename.RENAME:skidInsts       957711                       # count of insts added to the skid buffer
system.switch_cpus_1.rename.RENAME:tempSerializingInsts            0                       # count of temporary serializing insts renamed
system.switch_cpus_1.timesIdled                 28177                       # Number of times that the entire CPU went into an idle state and unscheduled itself

---------- End Simulation Statistics   ----------
