
---------- Begin Simulation Statistics ----------
host_inst_rate                                 360722                       # Simulator instruction rate (inst/s)
host_mem_usage                                 402744                       # Number of bytes of host memory used
host_seconds                                    55.44                       # Real time elapsed on the host
host_tick_rate                              323284386                       # Simulator tick rate (ticks/s)
sim_freq                                 1000000000000                       # Frequency of simulated ticks
sim_insts                                    20000003                       # Number of instructions simulated
sim_seconds                                  0.017924                       # Number of seconds simulated
sim_ticks                                 17924351500                       # Number of ticks simulated
system.cpu.dcache.ReadReq_accesses            3313546                       # number of ReadReq accesses(hits+misses)
system.cpu.dcache.ReadReq_avg_miss_latency 20364.427262                       # average ReadReq miss latency
system.cpu.dcache.ReadReq_avg_mshr_miss_latency 17471.460685                       # average ReadReq mshr miss latency
system.cpu.dcache.ReadReq_hits                3222108                       # number of ReadReq hits
system.cpu.dcache.ReadReq_miss_latency     1862082500                       # number of ReadReq miss cycles
system.cpu.dcache.ReadReq_miss_rate          0.027595                       # miss rate for ReadReq accesses
system.cpu.dcache.ReadReq_misses                91438                       # number of ReadReq misses
system.cpu.dcache.ReadReq_mshr_hits              7361                       # number of ReadReq MSHR hits
system.cpu.dcache.ReadReq_mshr_miss_latency   1468948000                       # number of ReadReq MSHR miss cycles
system.cpu.dcache.ReadReq_mshr_miss_rate     0.025374                       # mshr miss rate for ReadReq accesses
system.cpu.dcache.ReadReq_mshr_misses           84077                       # number of ReadReq MSHR misses
system.cpu.dcache.WriteReq_accesses           2822830                       # number of WriteReq accesses(hits+misses)
system.cpu.dcache.WriteReq_avg_miss_latency 34406.919275                       # average WriteReq miss latency
system.cpu.dcache.WriteReq_avg_mshr_miss_latency 31734.147680                       # average WriteReq mshr miss latency
system.cpu.dcache.WriteReq_hits               2817974                       # number of WriteReq hits
system.cpu.dcache.WriteReq_miss_latency     167080000                       # number of WriteReq miss cycles
system.cpu.dcache.WriteReq_miss_rate         0.001720                       # miss rate for WriteReq accesses
system.cpu.dcache.WriteReq_misses                4856                       # number of WriteReq misses
system.cpu.dcache.WriteReq_mshr_hits             1212                       # number of WriteReq MSHR hits
system.cpu.dcache.WriteReq_mshr_miss_latency    115607500                       # number of WriteReq MSHR miss cycles
system.cpu.dcache.WriteReq_mshr_miss_rate     0.001291                       # mshr miss rate for WriteReq accesses
system.cpu.dcache.WriteReq_mshr_misses           3643                       # number of WriteReq MSHR misses
system.cpu.dcache.avg_blocked_cycles::no_mshrs     no_value                       # average number of cycles each access was blocked
system.cpu.dcache.avg_blocked_cycles::no_targets 30620.558376                       # average number of cycles each access was blocked
system.cpu.dcache.avg_refs                  69.439884                       # Average number of references to valid blocks.
system.cpu.dcache.blocked::no_mshrs                 0                       # number of cycles access was blocked
system.cpu.dcache.blocked::no_targets             394                       # number of cycles access was blocked
system.cpu.dcache.blocked_cycles::no_mshrs            0                       # number of cycles access was blocked
system.cpu.dcache.blocked_cycles::no_targets     12064500                       # number of cycles access was blocked
system.cpu.dcache.cache_copies                      0                       # number of cache copies performed
system.cpu.dcache.demand_accesses             6136376                       # number of demand (read+write) accesses
system.cpu.dcache.demand_avg_miss_latency 21072.574615                       # average overall miss latency
system.cpu.dcache.demand_avg_mshr_miss_latency 18063.788190                       # average overall mshr miss latency
system.cpu.dcache.demand_hits                 6040082                       # number of demand (read+write) hits
system.cpu.dcache.demand_miss_latency      2029162500                       # number of demand (read+write) miss cycles
system.cpu.dcache.demand_miss_rate           0.015692                       # miss rate for demand accesses
system.cpu.dcache.demand_misses                 96294                       # number of demand (read+write) misses
system.cpu.dcache.demand_mshr_hits               8573                       # number of demand (read+write) MSHR hits
system.cpu.dcache.demand_mshr_miss_latency   1584555500                       # number of demand (read+write) MSHR miss cycles
system.cpu.dcache.demand_mshr_miss_rate      0.014295                       # mshr miss rate for demand accesses
system.cpu.dcache.demand_mshr_misses            87720                       # number of demand (read+write) MSHR misses
system.cpu.dcache.fast_writes                       0                       # number of fast writes performed
system.cpu.dcache.mshr_cap_events                   0                       # number of times MSHR cap was activated
system.cpu.dcache.no_allocate_misses                0                       # Number of misses that were no-allocate
system.cpu.dcache.occ_%::0                   0.980738                       # Average percentage of cache occupancy
system.cpu.dcache.occ_blocks::0           1004.276131                       # Average occupied blocks per context
system.cpu.dcache.overall_accesses            6136376                       # number of overall (read+write) accesses
system.cpu.dcache.overall_avg_miss_latency 21072.574615                       # average overall miss latency
system.cpu.dcache.overall_avg_mshr_miss_latency 18063.788190                       # average overall mshr miss latency
system.cpu.dcache.overall_avg_mshr_uncacheable_latency     no_value                       # average overall mshr uncacheable latency
system.cpu.dcache.overall_hits                6040082                       # number of overall hits
system.cpu.dcache.overall_miss_latency     2029162500                       # number of overall miss cycles
system.cpu.dcache.overall_miss_rate          0.015692                       # miss rate for overall accesses
system.cpu.dcache.overall_misses                96294                       # number of overall misses
system.cpu.dcache.overall_mshr_hits              8573                       # number of overall MSHR hits
system.cpu.dcache.overall_mshr_miss_latency   1584555500                       # number of overall MSHR miss cycles
system.cpu.dcache.overall_mshr_miss_rate     0.014295                       # mshr miss rate for overall accesses
system.cpu.dcache.overall_mshr_misses           87720                       # number of overall MSHR misses
system.cpu.dcache.overall_mshr_uncacheable_latency            0                       # number of overall MSHR uncacheable cycles
system.cpu.dcache.overall_mshr_uncacheable_misses            0                       # number of overall MSHR uncacheable misses
system.cpu.dcache.prefetch_accuracy          no_value                       # ratio of good prefetches to total prefetches
system.cpu.dcache.prefetch_hits                     0                       # number of prefetched blocks that were accessed
system.cpu.dcache.replacements                  85974                       # number of replacements
system.cpu.dcache.sampled_refs                  86998                       # Sample count of references to valid blocks.
system.cpu.dcache.soft_prefetch_mshr_full            0                       # number of mshr full events for SW prefetching instrutions
system.cpu.dcache.tagsinuse               1004.276131                       # Cycle average of tags in use
system.cpu.dcache.total_refs                  6041131                       # Total number of references to valid blocks.
system.cpu.dcache.warmup_cycle           502109389000                       # Cycle when the warmup percentage was hit.
system.cpu.dcache.writebacks                     3600                       # number of writebacks
system.cpu.dtb.data_accesses                        1                       # DTB accesses
system.cpu.dtb.data_acv                             0                       # DTB access violations
system.cpu.dtb.data_hits                            1                       # DTB hits
system.cpu.dtb.data_misses                          0                       # DTB misses
system.cpu.dtb.fetch_accesses                       0                       # ITB accesses
system.cpu.dtb.fetch_acv                            0                       # ITB acv
system.cpu.dtb.fetch_hits                           0                       # ITB hits
system.cpu.dtb.fetch_misses                         0                       # ITB misses
system.cpu.dtb.read_accesses                        0                       # DTB read accesses
system.cpu.dtb.read_acv                             0                       # DTB read access violations
system.cpu.dtb.read_hits                            0                       # DTB read hits
system.cpu.dtb.read_misses                          0                       # DTB read misses
system.cpu.dtb.write_accesses                       1                       # DTB write accesses
system.cpu.dtb.write_acv                            0                       # DTB write access violations
system.cpu.dtb.write_hits                           1                       # DTB write hits
system.cpu.dtb.write_misses                         0                       # DTB write misses
system.cpu.icache.ReadReq_accesses           12223416                       # number of ReadReq accesses(hits+misses)
system.cpu.icache.ReadReq_avg_miss_latency 48153.846154                       # average ReadReq miss latency
system.cpu.icache.ReadReq_avg_mshr_miss_latency 57062.500000                       # average ReadReq mshr miss latency
system.cpu.icache.ReadReq_hits               12223403                       # number of ReadReq hits
system.cpu.icache.ReadReq_miss_latency         626000                       # number of ReadReq miss cycles
system.cpu.icache.ReadReq_miss_rate          0.000001                       # miss rate for ReadReq accesses
system.cpu.icache.ReadReq_misses                   13                       # number of ReadReq misses
system.cpu.icache.ReadReq_mshr_hits                 4                       # number of ReadReq MSHR hits
system.cpu.icache.ReadReq_mshr_miss_latency       456500                       # number of ReadReq MSHR miss cycles
system.cpu.icache.ReadReq_mshr_miss_rate     0.000001                       # mshr miss rate for ReadReq accesses
system.cpu.icache.ReadReq_mshr_misses               8                       # number of ReadReq MSHR misses
system.cpu.icache.avg_blocked_cycles::no_mshrs     no_value                       # average number of cycles each access was blocked
system.cpu.icache.avg_blocked_cycles::no_targets        22000                       # average number of cycles each access was blocked
system.cpu.icache.avg_refs               1358155.888889                       # Average number of references to valid blocks.
system.cpu.icache.blocked::no_mshrs                 0                       # number of cycles access was blocked
system.cpu.icache.blocked::no_targets               1                       # number of cycles access was blocked
system.cpu.icache.blocked_cycles::no_mshrs            0                       # number of cycles access was blocked
system.cpu.icache.blocked_cycles::no_targets        22000                       # number of cycles access was blocked
system.cpu.icache.cache_copies                      0                       # number of cache copies performed
system.cpu.icache.demand_accesses            12223416                       # number of demand (read+write) accesses
system.cpu.icache.demand_avg_miss_latency 48153.846154                       # average overall miss latency
system.cpu.icache.demand_avg_mshr_miss_latency 57062.500000                       # average overall mshr miss latency
system.cpu.icache.demand_hits                12223403                       # number of demand (read+write) hits
system.cpu.icache.demand_miss_latency          626000                       # number of demand (read+write) miss cycles
system.cpu.icache.demand_miss_rate           0.000001                       # miss rate for demand accesses
system.cpu.icache.demand_misses                    13                       # number of demand (read+write) misses
system.cpu.icache.demand_mshr_hits                  4                       # number of demand (read+write) MSHR hits
system.cpu.icache.demand_mshr_miss_latency       456500                       # number of demand (read+write) MSHR miss cycles
system.cpu.icache.demand_mshr_miss_rate      0.000001                       # mshr miss rate for demand accesses
system.cpu.icache.demand_mshr_misses                8                       # number of demand (read+write) MSHR misses
system.cpu.icache.fast_writes                       0                       # number of fast writes performed
system.cpu.icache.mshr_cap_events                   0                       # number of times MSHR cap was activated
system.cpu.icache.no_allocate_misses                0                       # Number of misses that were no-allocate
system.cpu.icache.occ_%::0                   0.012807                       # Average percentage of cache occupancy
system.cpu.icache.occ_blocks::0              6.557136                       # Average occupied blocks per context
system.cpu.icache.overall_accesses           12223416                       # number of overall (read+write) accesses
system.cpu.icache.overall_avg_miss_latency 48153.846154                       # average overall miss latency
system.cpu.icache.overall_avg_mshr_miss_latency 57062.500000                       # average overall mshr miss latency
system.cpu.icache.overall_avg_mshr_uncacheable_latency     no_value                       # average overall mshr uncacheable latency
system.cpu.icache.overall_hits               12223403                       # number of overall hits
system.cpu.icache.overall_miss_latency         626000                       # number of overall miss cycles
system.cpu.icache.overall_miss_rate          0.000001                       # miss rate for overall accesses
system.cpu.icache.overall_misses                   13                       # number of overall misses
system.cpu.icache.overall_mshr_hits                 4                       # number of overall MSHR hits
system.cpu.icache.overall_mshr_miss_latency       456500                       # number of overall MSHR miss cycles
system.cpu.icache.overall_mshr_miss_rate     0.000001                       # mshr miss rate for overall accesses
system.cpu.icache.overall_mshr_misses               8                       # number of overall MSHR misses
system.cpu.icache.overall_mshr_uncacheable_latency            0                       # number of overall MSHR uncacheable cycles
system.cpu.icache.overall_mshr_uncacheable_misses            0                       # number of overall MSHR uncacheable misses
system.cpu.icache.prefetch_accuracy          no_value                       # ratio of good prefetches to total prefetches
system.cpu.icache.prefetch_hits                     0                       # number of prefetched blocks that were accessed
system.cpu.icache.replacements                      0                       # number of replacements
system.cpu.icache.sampled_refs                      9                       # Sample count of references to valid blocks.
system.cpu.icache.soft_prefetch_mshr_full            0                       # number of mshr full events for SW prefetching instrutions
system.cpu.icache.tagsinuse                  6.557136                       # Cycle average of tags in use
system.cpu.icache.total_refs                 12223403                       # Total number of references to valid blocks.
system.cpu.icache.warmup_cycle                      0                       # Cycle when the warmup percentage was hit.
system.cpu.icache.writebacks                        0                       # number of writebacks
system.cpu.idle_fraction                            0                       # Percentage of idle cycles
system.cpu.itb.data_accesses                        0                       # DTB accesses
system.cpu.itb.data_acv                             0                       # DTB access violations
system.cpu.itb.data_hits                            0                       # DTB hits
system.cpu.itb.data_misses                          0                       # DTB misses
system.cpu.itb.fetch_accesses                       2                       # ITB accesses
system.cpu.itb.fetch_acv                            0                       # ITB acv
system.cpu.itb.fetch_hits                           2                       # ITB hits
system.cpu.itb.fetch_misses                         0                       # ITB misses
system.cpu.itb.read_accesses                        0                       # DTB read accesses
system.cpu.itb.read_acv                             0                       # DTB read access violations
system.cpu.itb.read_hits                            0                       # DTB read hits
system.cpu.itb.read_misses                          0                       # DTB read misses
system.cpu.itb.write_accesses                       0                       # DTB write accesses
system.cpu.itb.write_acv                            0                       # DTB write access violations
system.cpu.itb.write_hits                           0                       # DTB write hits
system.cpu.itb.write_misses                         0                       # DTB write misses
system.cpu.not_idle_fraction                        1                       # Percentage of non-idle cycles
system.cpu.numCycles                                2                       # number of cpu cycles simulated
system.cpu.num_insts                                2                       # Number of instructions executed
system.cpu.num_refs                                 1                       # Number of memory references
system.cpu.workload.PROG:num_syscalls               0                       # Number of system calls
system.l2.HardPFReq_avg_mshr_miss_latency 33118.064714                       # average HardPFReq mshr miss latency
system.l2.HardPFReq_mshr_miss_latency       592614650                       # number of HardPFReq MSHR miss cycles
system.l2.HardPFReq_mshr_miss_rate                inf                       # mshr miss rate for HardPFReq accesses
system.l2.HardPFReq_mshr_misses                 17894                       # number of HardPFReq MSHR misses
system.l2.ReadExReq_accesses                     2921                       # number of ReadExReq accesses(hits+misses)
system.l2.ReadExReq_avg_miss_latency     57057.432432                       # average ReadExReq miss latency
system.l2.ReadExReq_avg_mshr_miss_latency 41213.641488                       # average ReadExReq mshr miss latency
system.l2.ReadExReq_hits                         2033                       # number of ReadExReq hits
system.l2.ReadExReq_miss_latency             50667000                       # number of ReadExReq miss cycles
system.l2.ReadExReq_miss_rate                0.304005                       # miss rate for ReadExReq accesses
system.l2.ReadExReq_misses                        888                       # number of ReadExReq misses
system.l2.ReadExReq_mshr_miss_latency        36556500                       # number of ReadExReq MSHR miss cycles
system.l2.ReadExReq_mshr_miss_rate           0.303663                       # mshr miss rate for ReadExReq accesses
system.l2.ReadExReq_mshr_misses                   887                       # number of ReadExReq MSHR misses
system.l2.ReadReq_accesses                      84086                       # number of ReadReq accesses(hits+misses)
system.l2.ReadReq_avg_miss_latency       58397.012223                       # average ReadReq miss latency
system.l2.ReadReq_avg_mshr_miss_latency  42635.624034                       # average ReadReq mshr miss latency
system.l2.ReadReq_hits                          73041                       # number of ReadReq hits
system.l2.ReadReq_miss_latency              644995000                       # number of ReadReq miss cycles
system.l2.ReadReq_miss_rate                  0.131354                       # miss rate for ReadReq accesses
system.l2.ReadReq_misses                        11045                       # number of ReadReq misses
system.l2.ReadReq_mshr_hits                        43                       # number of ReadReq MSHR hits
system.l2.ReadReq_mshr_miss_latency         469034500                       # number of ReadReq MSHR miss cycles
system.l2.ReadReq_mshr_miss_rate             0.130830                       # mshr miss rate for ReadReq accesses
system.l2.ReadReq_mshr_misses                   11001                       # number of ReadReq MSHR misses
system.l2.UpgradeReq_accesses                     723                       # number of UpgradeReq accesses(hits+misses)
system.l2.UpgradeReq_avg_miss_latency    56479.253112                       # average UpgradeReq miss latency
system.l2.UpgradeReq_avg_mshr_miss_latency 40532.503458                       # average UpgradeReq mshr miss latency
system.l2.UpgradeReq_miss_latency            40834500                       # number of UpgradeReq miss cycles
system.l2.UpgradeReq_miss_rate                      1                       # miss rate for UpgradeReq accesses
system.l2.UpgradeReq_misses                       723                       # number of UpgradeReq misses
system.l2.UpgradeReq_mshr_miss_latency       29305000                       # number of UpgradeReq MSHR miss cycles
system.l2.UpgradeReq_mshr_miss_rate                 1                       # mshr miss rate for UpgradeReq accesses
system.l2.UpgradeReq_mshr_misses                  723                       # number of UpgradeReq MSHR misses
system.l2.Writeback_accesses                     3600                       # number of Writeback accesses(hits+misses)
system.l2.Writeback_hits                         3600                       # number of Writeback hits
system.l2.avg_blocked_cycles::no_mshrs       no_value                       # average number of cycles each access was blocked
system.l2.avg_blocked_cycles::no_targets     no_value                       # average number of cycles each access was blocked
system.l2.avg_refs                           2.518679                       # Average number of references to valid blocks.
system.l2.blocked::no_mshrs                         0                       # number of cycles access was blocked
system.l2.blocked::no_targets                       0                       # number of cycles access was blocked
system.l2.blocked_cycles::no_mshrs                  0                       # number of cycles access was blocked
system.l2.blocked_cycles::no_targets                0                       # number of cycles access was blocked
system.l2.cache_copies                              0                       # number of cache copies performed
system.l2.demand_accesses                       87007                       # number of demand (read+write) accesses
system.l2.demand_avg_miss_latency        58297.326741                       # average overall miss latency
system.l2.demand_avg_mshr_miss_latency   42529.525572                       # average overall mshr miss latency
system.l2.demand_hits                           75074                       # number of demand (read+write) hits
system.l2.demand_miss_latency               695662000                       # number of demand (read+write) miss cycles
system.l2.demand_miss_rate                   0.137150                       # miss rate for demand accesses
system.l2.demand_misses                         11933                       # number of demand (read+write) misses
system.l2.demand_mshr_hits                         43                       # number of demand (read+write) MSHR hits
system.l2.demand_mshr_miss_latency          505591000                       # number of demand (read+write) MSHR miss cycles
system.l2.demand_mshr_miss_rate              0.136633                       # mshr miss rate for demand accesses
system.l2.demand_mshr_misses                    11888                       # number of demand (read+write) MSHR misses
system.l2.fast_writes                               0                       # number of fast writes performed
system.l2.mshr_cap_events                           0                       # number of times MSHR cap was activated
system.l2.no_allocate_misses                        0                       # Number of misses that were no-allocate
system.l2.occ_%::0                           0.615577                       # Average percentage of cache occupancy
system.l2.occ_%::1                           0.042819                       # Average percentage of cache occupancy
system.l2.occ_blocks::0                  10085.607388                       # Average occupied blocks per context
system.l2.occ_blocks::1                    701.554001                       # Average occupied blocks per context
system.l2.overall_accesses                      87007                       # number of overall (read+write) accesses
system.l2.overall_avg_miss_latency       58297.326741                       # average overall miss latency
system.l2.overall_avg_mshr_miss_latency  36874.811967                       # average overall mshr miss latency
system.l2.overall_avg_mshr_uncacheable_latency     no_value                       # average overall mshr uncacheable latency
system.l2.overall_hits                          75074                       # number of overall hits
system.l2.overall_miss_latency              695662000                       # number of overall miss cycles
system.l2.overall_miss_rate                  0.137150                       # miss rate for overall accesses
system.l2.overall_misses                        11933                       # number of overall misses
system.l2.overall_mshr_hits                        43                       # number of overall MSHR hits
system.l2.overall_mshr_miss_latency        1098205650                       # number of overall MSHR miss cycles
system.l2.overall_mshr_miss_rate             0.342294                       # mshr miss rate for overall accesses
system.l2.overall_mshr_misses                   29782                       # number of overall MSHR misses
system.l2.overall_mshr_uncacheable_latency            0                       # number of overall MSHR uncacheable cycles
system.l2.overall_mshr_uncacheable_misses            0                       # number of overall MSHR uncacheable misses
system.l2.prefetch_accuracy                  0.646585                       # ratio of good prefetches to total prefetches
system.l2.prefetch_hits                         11570                       # number of prefetched blocks that were accessed
system.l2.prefetcher.num_hwpf_already_in_prefetcher           91                       # number of hwpf that were already in the prefetch queue
system.l2.prefetcher.num_hwpf_evicted               0                       # number of hwpf removed due to no buffer left
system.l2.prefetcher.num_hwpf_identified        18062                       # number of hwpf identified
system.l2.prefetcher.num_hwpf_issued            17909                       # number of hwpf issued
system.l2.prefetcher.num_hwpf_removed_MSHR_hit           62                       # number of hwpf removed because MSHR allocated
system.l2.prefetcher.num_hwpf_span_page             0                       # number of hwpf spanning a virtual page
system.l2.prefetcher.num_hwpf_squashed_from_miss            0                       # number of hwpf that got squashed due to a miss aborting calculation time
system.l2.replacements                          14459                       # number of replacements
system.l2.sampled_refs                          29685                       # Sample count of references to valid blocks.
system.l2.soft_prefetch_mshr_full                   0                       # number of mshr full events for SW prefetching instrutions
system.l2.tagsinuse                      10787.161388                       # Cycle average of tags in use
system.l2.total_refs                            74767                       # Total number of references to valid blocks.
system.l2.warmup_cycle                              0                       # Cycle when the warmup percentage was hit.
system.l2.writebacks                             1538                       # number of writebacks
system.switch_cpus.dtb.data_accesses          2972120                       # DTB accesses
system.switch_cpus.dtb.data_acv                     0                       # DTB access violations
system.switch_cpus.dtb.data_hits              2969257                       # DTB hits
system.switch_cpus.dtb.data_misses               2863                       # DTB misses
system.switch_cpus.dtb.fetch_accesses               0                       # ITB accesses
system.switch_cpus.dtb.fetch_acv                    0                       # ITB acv
system.switch_cpus.dtb.fetch_hits                   0                       # ITB hits
system.switch_cpus.dtb.fetch_misses                 0                       # ITB misses
system.switch_cpus.dtb.read_accesses          1546660                       # DTB read accesses
system.switch_cpus.dtb.read_acv                     0                       # DTB read access violations
system.switch_cpus.dtb.read_hits              1543848                       # DTB read hits
system.switch_cpus.dtb.read_misses               2812                       # DTB read misses
system.switch_cpus.dtb.write_accesses         1425460                       # DTB write accesses
system.switch_cpus.dtb.write_acv                    0                       # DTB write access violations
system.switch_cpus.dtb.write_hits             1425409                       # DTB write hits
system.switch_cpus.dtb.write_misses                51                       # DTB write misses
system.switch_cpus.idle_fraction                    1                       # Percentage of idle cycles
system.switch_cpus.itb.data_accesses                0                       # DTB accesses
system.switch_cpus.itb.data_acv                     0                       # DTB access violations
system.switch_cpus.itb.data_hits                    0                       # DTB hits
system.switch_cpus.itb.data_misses                  0                       # DTB misses
system.switch_cpus.itb.fetch_accesses        10002866                       # ITB accesses
system.switch_cpus.itb.fetch_acv                    0                       # ITB acv
system.switch_cpus.itb.fetch_hits            10002865                       # ITB hits
system.switch_cpus.itb.fetch_misses                 1                       # ITB misses
system.switch_cpus.itb.read_accesses                0                       # DTB read accesses
system.switch_cpus.itb.read_acv                     0                       # DTB read access violations
system.switch_cpus.itb.read_hits                    0                       # DTB read hits
system.switch_cpus.itb.read_misses                  0                       # DTB read misses
system.switch_cpus.itb.write_accesses               0                       # DTB write accesses
system.switch_cpus.itb.write_acv                    0                       # DTB write access violations
system.switch_cpus.itb.write_hits                   0                       # DTB write hits
system.switch_cpus.itb.write_misses                 0                       # DTB write misses
system.switch_cpus.not_idle_fraction                0                       # Percentage of non-idle cycles
system.switch_cpus.numCycles                 27663848                       # number of cpu cycles simulated
system.switch_cpus.num_insts                 10000001                       # Number of instructions executed
system.switch_cpus.num_refs                   2972120                       # Number of memory references
system.switch_cpus_1.BPredUnit.BTBCorrect            0                       # Number of correct BTB predictions (this stat may not work properly.
system.switch_cpus_1.BPredUnit.BTBHits        2071663                       # Number of BTB hits
system.switch_cpus_1.BPredUnit.BTBLookups      2133230                       # Number of BTB lookups
system.switch_cpus_1.BPredUnit.RASInCorrect            0                       # Number of incorrect RAS predictions.
system.switch_cpus_1.BPredUnit.condIncorrect       158282                       # Number of conditional branches incorrect
system.switch_cpus_1.BPredUnit.condPredicted      2145353                       # Number of conditional branches predicted
system.switch_cpus_1.BPredUnit.lookups        2299480                       # Number of BP lookups
system.switch_cpus_1.BPredUnit.usedRAS              0                       # Number of times the RAS was used to get a target.
system.switch_cpus_1.commit.COM:branches      1623752                       # Number of branches committed
system.switch_cpus_1.commit.COM:bw_lim_events        90853                       # number cycles where commit BW limit reached
system.switch_cpus_1.commit.COM:bw_limited            0                       # number of insts not committed due to BW limits
system.switch_cpus_1.commit.COM:committed_per_cycle::samples      7711107                       # Number of insts commited each cycle
system.switch_cpus_1.commit.COM:committed_per_cycle::mean     1.348510                       # Number of insts commited each cycle
system.switch_cpus_1.commit.COM:committed_per_cycle::stdev     1.777001                       # Number of insts commited each cycle
system.switch_cpus_1.commit.COM:committed_per_cycle::underflows            0      0.00%      0.00% # Number of insts commited each cycle
system.switch_cpus_1.commit.COM:committed_per_cycle::0      3126046     40.54%     40.54% # Number of insts commited each cycle
system.switch_cpus_1.commit.COM:committed_per_cycle::1      2850588     36.97%     77.51% # Number of insts commited each cycle
system.switch_cpus_1.commit.COM:committed_per_cycle::2       167837      2.18%     79.68% # Number of insts commited each cycle
system.switch_cpus_1.commit.COM:committed_per_cycle::3        74808      0.97%     80.65% # Number of insts commited each cycle
system.switch_cpus_1.commit.COM:committed_per_cycle::4       756752      9.81%     90.47% # Number of insts commited each cycle
system.switch_cpus_1.commit.COM:committed_per_cycle::5       634879      8.23%     98.70% # Number of insts commited each cycle
system.switch_cpus_1.commit.COM:committed_per_cycle::6         5813      0.08%     98.78% # Number of insts commited each cycle
system.switch_cpus_1.commit.COM:committed_per_cycle::7         3531      0.05%     98.82% # Number of insts commited each cycle
system.switch_cpus_1.commit.COM:committed_per_cycle::8        90853      1.18%    100.00% # Number of insts commited each cycle
system.switch_cpus_1.commit.COM:committed_per_cycle::overflows            0      0.00%    100.00% # Number of insts commited each cycle
system.switch_cpus_1.commit.COM:committed_per_cycle::min_value            0                       # Number of insts commited each cycle
system.switch_cpus_1.commit.COM:committed_per_cycle::max_value            8                       # Number of insts commited each cycle
system.switch_cpus_1.commit.COM:committed_per_cycle::total      7711107                       # Number of insts commited each cycle
system.switch_cpus_1.commit.COM:count        10398508                       # Number of instructions committed
system.switch_cpus_1.commit.COM:loads         1606582                       # Number of loads committed
system.switch_cpus_1.commit.COM:membars             0                       # Number of memory barriers committed
system.switch_cpus_1.commit.COM:refs          3004003                       # Number of memory references committed
system.switch_cpus_1.commit.COM:swp_count            0                       # Number of s/w prefetches committed
system.switch_cpus_1.commit.branchMispredicts       158277                       # The number of times a branch was mispredicted
system.switch_cpus_1.commit.commitCommittedInsts     10398508                       # The number of committed instructions
system.switch_cpus_1.commit.commitSquashedInsts      2778016                       # The number of squashed insts skipped by commit
system.switch_cpus_1.committedInsts          10000000                       # Number of Instructions Simulated
system.switch_cpus_1.committedInsts_total     10000000                       # Number of Instructions Simulated
system.switch_cpus_1.cpi                     0.818485                       # CPI: Cycles Per Instruction
system.switch_cpus_1.cpi_total               0.818485                       # CPI: Total CPI of All Threads
system.switch_cpus_1.decode.DECODE:BlockedCycles        40921                       # Number of cycles decode is blocked
system.switch_cpus_1.decode.DECODE:BranchMispred          220                       # Number of times decode detected a branch misprediction
system.switch_cpus_1.decode.DECODE:BranchResolved       150006                       # Number of times decode resolved a branch
system.switch_cpus_1.decode.DECODE:DecodedInsts     14369937                       # Number of instructions handled by decode
system.switch_cpus_1.decode.DECODE:IdleCycles      4444060                       # Number of cycles decode is idle
system.switch_cpus_1.decode.DECODE:RunCycles      3224274                       # Number of cycles decode is running
system.switch_cpus_1.decode.DECODE:SquashCycles       461794                       # Number of cycles decode is squashing
system.switch_cpus_1.decode.DECODE:SquashedInsts           16                       # Number of squashed instructions handled by decode
system.switch_cpus_1.decode.DECODE:UnblockCycles         1851                       # Number of cycles decode is unblocking
system.switch_cpus_1.dtb.data_accesses        3523081                       # DTB accesses
system.switch_cpus_1.dtb.data_acv                   0                       # DTB access violations
system.switch_cpus_1.dtb.data_hits            3516708                       # DTB hits
system.switch_cpus_1.dtb.data_misses             6373                       # DTB misses
system.switch_cpus_1.dtb.fetch_accesses             0                       # ITB accesses
system.switch_cpus_1.dtb.fetch_acv                  0                       # ITB acv
system.switch_cpus_1.dtb.fetch_hits                 0                       # ITB hits
system.switch_cpus_1.dtb.fetch_misses               0                       # ITB misses
system.switch_cpus_1.dtb.read_accesses        1899246                       # DTB read accesses
system.switch_cpus_1.dtb.read_acv                   0                       # DTB read access violations
system.switch_cpus_1.dtb.read_hits            1893125                       # DTB read hits
system.switch_cpus_1.dtb.read_misses             6121                       # DTB read misses
system.switch_cpus_1.dtb.write_accesses       1623835                       # DTB write accesses
system.switch_cpus_1.dtb.write_acv                  0                       # DTB write access violations
system.switch_cpus_1.dtb.write_hits           1623583                       # DTB write hits
system.switch_cpus_1.dtb.write_misses             252                       # DTB write misses
system.switch_cpus_1.fetch.Branches           2299480                       # Number of branches that fetch encountered
system.switch_cpus_1.fetch.CacheLines         2220549                       # Number of cache lines fetched
system.switch_cpus_1.fetch.Cycles             5486959                       # Number of cycles fetch has run and was not squashing or blocked
system.switch_cpus_1.fetch.IcacheSquashes        41761                       # Number of outstanding Icache misses that were squashed
system.switch_cpus_1.fetch.Insts             14611242                       # Number of instructions fetch has processed
system.switch_cpus_1.fetch.SquashCycles        173980                       # Number of cycles fetch has spent squashing
system.switch_cpus_1.fetch.branchRate        0.280943                       # Number of branch fetches per cycle
system.switch_cpus_1.fetch.icacheStallCycles      2220549                       # Number of cycles fetch is stalled on an Icache miss
system.switch_cpus_1.fetch.predictedBranches      2071663                       # Number of branches that fetch has predicted taken
system.switch_cpus_1.fetch.rate              1.785156                       # Number of inst fetches per cycle
system.switch_cpus_1.fetch.rateDist::samples      8172901                       # Number of instructions fetched each cycle (Total)
system.switch_cpus_1.fetch.rateDist::mean     1.787767                       # Number of instructions fetched each cycle (Total)
system.switch_cpus_1.fetch.rateDist::stdev     2.708363                       # Number of instructions fetched each cycle (Total)
system.switch_cpus_1.fetch.rateDist::underflows            0      0.00%      0.00% # Number of instructions fetched each cycle (Total)
system.switch_cpus_1.fetch.rateDist::0        4906491     60.03%     60.03% # Number of instructions fetched each cycle (Total)
system.switch_cpus_1.fetch.rateDist::1         790276      9.67%     69.70% # Number of instructions fetched each cycle (Total)
system.switch_cpus_1.fetch.rateDist::2         171132      2.09%     71.80% # Number of instructions fetched each cycle (Total)
system.switch_cpus_1.fetch.rateDist::3          53102      0.65%     72.45% # Number of instructions fetched each cycle (Total)
system.switch_cpus_1.fetch.rateDist::4         529872      6.48%     78.93% # Number of instructions fetched each cycle (Total)
system.switch_cpus_1.fetch.rateDist::5         669614      8.19%     87.12% # Number of instructions fetched each cycle (Total)
system.switch_cpus_1.fetch.rateDist::6          29094      0.36%     87.48% # Number of instructions fetched each cycle (Total)
system.switch_cpus_1.fetch.rateDist::7         509286      6.23%     93.71% # Number of instructions fetched each cycle (Total)
system.switch_cpus_1.fetch.rateDist::8         514034      6.29%    100.00% # Number of instructions fetched each cycle (Total)
system.switch_cpus_1.fetch.rateDist::overflows            0      0.00%    100.00% # Number of instructions fetched each cycle (Total)
system.switch_cpus_1.fetch.rateDist::min_value            0                       # Number of instructions fetched each cycle (Total)
system.switch_cpus_1.fetch.rateDist::max_value            8                       # Number of instructions fetched each cycle (Total)
system.switch_cpus_1.fetch.rateDist::total      8172901                       # Number of instructions fetched each cycle (Total)
system.switch_cpus_1.idleCycles                 11953                       # Total number of cycles that the CPU has spent unscheduled due to idling
system.switch_cpus_1.iew.EXEC:branches        1975506                       # Number of branches executed
system.switch_cpus_1.iew.EXEC:nop              861627                       # number of nop insts executed
system.switch_cpus_1.iew.EXEC:rate           1.444038                       # Inst execution rate
system.switch_cpus_1.iew.EXEC:refs            3523081                       # number of memory reference insts executed
system.switch_cpus_1.iew.EXEC:stores          1623835                       # Number of stores executed
system.switch_cpus_1.iew.EXEC:swp                   0                       # number of swp insts executed
system.switch_cpus_1.iew.WB:consumers         8673381                       # num instructions consuming a value
system.switch_cpus_1.iew.WB:count            11743178                       # cumulative count of insts written-back
system.switch_cpus_1.iew.WB:fanout           0.765540                       # average fanout of values written-back
system.switch_cpus_1.iew.WB:penalized               0                       # number of instrctions required to write to 'other' IQ
system.switch_cpus_1.iew.WB:penalized_rate            0                       # fraction of instructions written-back that wrote to 'other' IQ
system.switch_cpus_1.iew.WB:producers         6639816                       # num instructions producing a value
system.switch_cpus_1.iew.WB:rate             1.434745                       # insts written-back per cycle
system.switch_cpus_1.iew.WB:sent             11751875                       # cumulative count of insts sent to commit
system.switch_cpus_1.iew.branchMispredicts       171466                       # Number of branch mispredicts detected at execute
system.switch_cpus_1.iew.iewBlockCycles          3145                       # Number of cycles IEW is blocking
system.switch_cpus_1.iew.iewDispLoadInsts      1988911                       # Number of dispatched load instructions
system.switch_cpus_1.iew.iewDispNonSpecInsts            0                       # Number of dispatched non-speculative instructions
system.switch_cpus_1.iew.iewDispSquashedInsts       387674                       # Number of squashed instructions skipped by dispatch
system.switch_cpus_1.iew.iewDispStoreInsts      1699313                       # Number of dispatched store instructions
system.switch_cpus_1.iew.iewDispatchedInsts     13271139                       # Number of instructions dispatched to IQ
system.switch_cpus_1.iew.iewExecLoadInsts      1899246                       # Number of load instructions executed
system.switch_cpus_1.iew.iewExecSquashedInsts       153480                       # Number of squashed instructions skipped in execute
system.switch_cpus_1.iew.iewExecutedInsts     11819244                       # Number of executed instructions
system.switch_cpus_1.iew.iewIQFullEvents           77                       # Number of times the IQ has become full, causing a stall
system.switch_cpus_1.iew.iewIdleCycles              0                       # Number of cycles IEW is idle
system.switch_cpus_1.iew.iewLSQFullEvents            1                       # Number of times the LSQ has become full, causing a stall
system.switch_cpus_1.iew.iewSquashCycles       461794                       # Number of cycles IEW is squashing
system.switch_cpus_1.iew.iewUnblockCycles          127                       # Number of cycles IEW is unblocking
system.switch_cpus_1.iew.lsq.thread.0.blockedLoads            0                       # Number of blocked loads due to partial load-store forwarding
system.switch_cpus_1.iew.lsq.thread.0.cacheBlocked         1351                       # Number of times an access to memory failed due to the cache being blocked
system.switch_cpus_1.iew.lsq.thread.0.forwLoads       122161                       # Number of loads that had data forwarded from stores
system.switch_cpus_1.iew.lsq.thread.0.ignoredResponses        10633                       # Number of memory responses ignored because the instruction is squashed
system.switch_cpus_1.iew.lsq.thread.0.invAddrLoads            0                       # Number of loads ignored due to an invalid address
system.switch_cpus_1.iew.lsq.thread.0.invAddrSwpfs            0                       # Number of software prefetches ignored due to an invalid address
system.switch_cpus_1.iew.lsq.thread.0.memOrderViolation        11876                       # Number of memory ordering violations
system.switch_cpus_1.iew.lsq.thread.0.rescheduledLoads            0                       # Number of loads that were rescheduled
system.switch_cpus_1.iew.lsq.thread.0.squashedLoads       382328                       # Number of loads squashed
system.switch_cpus_1.iew.lsq.thread.0.squashedStores       301891                       # Number of stores squashed
system.switch_cpus_1.iew.memOrderViolationEvents        11876                       # Number of memory order violations
system.switch_cpus_1.iew.predictedNotTakenIncorrect        27579                       # Number of branches that were predicted not taken incorrectly
system.switch_cpus_1.iew.predictedTakenIncorrect       143887                       # Number of branches that were predicted taken incorrectly
system.switch_cpus_1.ipc                     1.221769                       # IPC: Instructions Per Cycle
system.switch_cpus_1.ipc_total               1.221769                       # IPC: Total IPC of All Threads
system.switch_cpus_1.iq.ISSUE:FU_type_0::No_OpClass            0      0.00%      0.00% # Type of FU issued
system.switch_cpus_1.iq.ISSUE:FU_type_0::IntAlu      8411494     70.26%     70.26% # Type of FU issued
system.switch_cpus_1.iq.ISSUE:FU_type_0::IntMult            0      0.00%     70.26% # Type of FU issued
system.switch_cpus_1.iq.ISSUE:FU_type_0::IntDiv            0      0.00%     70.26% # Type of FU issued
system.switch_cpus_1.iq.ISSUE:FU_type_0::FloatAdd            0      0.00%     70.26% # Type of FU issued
system.switch_cpus_1.iq.ISSUE:FU_type_0::FloatCmp            0      0.00%     70.26% # Type of FU issued
system.switch_cpus_1.iq.ISSUE:FU_type_0::FloatCvt            0      0.00%     70.26% # Type of FU issued
system.switch_cpus_1.iq.ISSUE:FU_type_0::FloatMult            0      0.00%     70.26% # Type of FU issued
system.switch_cpus_1.iq.ISSUE:FU_type_0::FloatDiv            0      0.00%     70.26% # Type of FU issued
system.switch_cpus_1.iq.ISSUE:FU_type_0::FloatSqrt            0      0.00%     70.26% # Type of FU issued
system.switch_cpus_1.iq.ISSUE:FU_type_0::MemRead      1914050     15.99%     86.24% # Type of FU issued
system.switch_cpus_1.iq.ISSUE:FU_type_0::MemWrite      1647181     13.76%    100.00% # Type of FU issued
system.switch_cpus_1.iq.ISSUE:FU_type_0::IprAccess            0      0.00%    100.00% # Type of FU issued
system.switch_cpus_1.iq.ISSUE:FU_type_0::InstPrefetch            0      0.00%    100.00% # Type of FU issued
system.switch_cpus_1.iq.ISSUE:FU_type_0::total     11972725                       # Type of FU issued
system.switch_cpus_1.iq.ISSUE:fu_busy_cnt         4453                       # FU busy when requested
system.switch_cpus_1.iq.ISSUE:fu_busy_rate     0.000372                       # FU busy rate (busy events/executed inst)
system.switch_cpus_1.iq.ISSUE:fu_full::No_OpClass            0      0.00%      0.00% # attempts to use FU when none available
system.switch_cpus_1.iq.ISSUE:fu_full::IntAlu         4391     98.61%     98.61% # attempts to use FU when none available
system.switch_cpus_1.iq.ISSUE:fu_full::IntMult            0      0.00%     98.61% # attempts to use FU when none available
system.switch_cpus_1.iq.ISSUE:fu_full::IntDiv            0      0.00%     98.61% # attempts to use FU when none available
system.switch_cpus_1.iq.ISSUE:fu_full::FloatAdd            0      0.00%     98.61% # attempts to use FU when none available
system.switch_cpus_1.iq.ISSUE:fu_full::FloatCmp            0      0.00%     98.61% # attempts to use FU when none available
system.switch_cpus_1.iq.ISSUE:fu_full::FloatCvt            0      0.00%     98.61% # attempts to use FU when none available
system.switch_cpus_1.iq.ISSUE:fu_full::FloatMult            0      0.00%     98.61% # attempts to use FU when none available
system.switch_cpus_1.iq.ISSUE:fu_full::FloatDiv            0      0.00%     98.61% # attempts to use FU when none available
system.switch_cpus_1.iq.ISSUE:fu_full::FloatSqrt            0      0.00%     98.61% # attempts to use FU when none available
system.switch_cpus_1.iq.ISSUE:fu_full::MemRead           50      1.12%     99.73% # attempts to use FU when none available
system.switch_cpus_1.iq.ISSUE:fu_full::MemWrite           12      0.27%    100.00% # attempts to use FU when none available
system.switch_cpus_1.iq.ISSUE:fu_full::IprAccess            0      0.00%    100.00% # attempts to use FU when none available
system.switch_cpus_1.iq.ISSUE:fu_full::InstPrefetch            0      0.00%    100.00% # attempts to use FU when none available
system.switch_cpus_1.iq.ISSUE:issued_per_cycle::samples      8172901                       # Number of insts issued each cycle
system.switch_cpus_1.iq.ISSUE:issued_per_cycle::mean     1.464930                       # Number of insts issued each cycle
system.switch_cpus_1.iq.ISSUE:issued_per_cycle::stdev     1.312097                       # Number of insts issued each cycle
system.switch_cpus_1.iq.ISSUE:issued_per_cycle::underflows            0      0.00%      0.00% # Number of insts issued each cycle
system.switch_cpus_1.iq.ISSUE:issued_per_cycle::0      2137056     26.15%     26.15% # Number of insts issued each cycle
system.switch_cpus_1.iq.ISSUE:issued_per_cycle::1      2520558     30.84%     56.99% # Number of insts issued each cycle
system.switch_cpus_1.iq.ISSUE:issued_per_cycle::2      2312420     28.29%     85.28% # Number of insts issued each cycle
system.switch_cpus_1.iq.ISSUE:issued_per_cycle::3       184807      2.26%     87.54% # Number of insts issued each cycle
system.switch_cpus_1.iq.ISSUE:issued_per_cycle::4       852921     10.44%     97.98% # Number of insts issued each cycle
system.switch_cpus_1.iq.ISSUE:issued_per_cycle::5       134549      1.65%     99.63% # Number of insts issued each cycle
system.switch_cpus_1.iq.ISSUE:issued_per_cycle::6        25784      0.32%     99.94% # Number of insts issued each cycle
system.switch_cpus_1.iq.ISSUE:issued_per_cycle::7         4675      0.06%    100.00% # Number of insts issued each cycle
system.switch_cpus_1.iq.ISSUE:issued_per_cycle::8          131      0.00%    100.00% # Number of insts issued each cycle
system.switch_cpus_1.iq.ISSUE:issued_per_cycle::overflows            0      0.00%    100.00% # Number of insts issued each cycle
system.switch_cpus_1.iq.ISSUE:issued_per_cycle::min_value            0                       # Number of insts issued each cycle
system.switch_cpus_1.iq.ISSUE:issued_per_cycle::max_value            8                       # Number of insts issued each cycle
system.switch_cpus_1.iq.ISSUE:issued_per_cycle::total      8172901                       # Number of insts issued each cycle
system.switch_cpus_1.iq.ISSUE:rate           1.462790                       # Inst issue rate
system.switch_cpus_1.iq.iqInstsAdded         12409512                       # Number of instructions added to the IQ (excludes non-spec)
system.switch_cpus_1.iq.iqInstsIssued        11972725                       # Number of instructions issued
system.switch_cpus_1.iq.iqSquashedInstsExamined      2128262                       # Number of squashed instructions iterated over during squash; mainly for profiling
system.switch_cpus_1.iq.iqSquashedInstsIssued         1172                       # Number of squashed instructions issued
system.switch_cpus_1.iq.iqSquashedOperandsExamined       806347                       # Number of squashed operands that are examined and possibly removed from graph
system.switch_cpus_1.itb.data_accesses              0                       # DTB accesses
system.switch_cpus_1.itb.data_acv                   0                       # DTB access violations
system.switch_cpus_1.itb.data_hits                  0                       # DTB hits
system.switch_cpus_1.itb.data_misses                0                       # DTB misses
system.switch_cpus_1.itb.fetch_accesses       2220550                       # ITB accesses
system.switch_cpus_1.itb.fetch_acv                  0                       # ITB acv
system.switch_cpus_1.itb.fetch_hits           2220549                       # ITB hits
system.switch_cpus_1.itb.fetch_misses               1                       # ITB misses
system.switch_cpus_1.itb.read_accesses              0                       # DTB read accesses
system.switch_cpus_1.itb.read_acv                   0                       # DTB read access violations
system.switch_cpus_1.itb.read_hits                  0                       # DTB read hits
system.switch_cpus_1.itb.read_misses                0                       # DTB read misses
system.switch_cpus_1.itb.write_accesses             0                       # DTB write accesses
system.switch_cpus_1.itb.write_acv                  0                       # DTB write access violations
system.switch_cpus_1.itb.write_hits                 0                       # DTB write hits
system.switch_cpus_1.itb.write_misses               0                       # DTB write misses
system.switch_cpus_1.memDep0.conflictingLoads       610051                       # Number of conflicting loads.
system.switch_cpus_1.memDep0.conflictingStores       547604                       # Number of conflicting stores.
system.switch_cpus_1.memDep0.insertedLoads      1988911                       # Number of loads inserted to the mem dependence unit.
system.switch_cpus_1.memDep0.insertedStores      1699313                       # Number of stores inserted to the mem dependence unit.
system.switch_cpus_1.numCycles                8184854                       # number of cpu cycles simulated
system.switch_cpus_1.rename.RENAME:BlockCycles        29288                       # Number of cycles rename is blocking
system.switch_cpus_1.rename.RENAME:CommittedMaps      6978824                       # Number of HB maps that are committed
system.switch_cpus_1.rename.RENAME:IQFullEvents          295                       # Number of times rename has blocked due to IQ full
system.switch_cpus_1.rename.RENAME:IdleCycles      4494085                       # Number of cycles rename is idle
system.switch_cpus_1.rename.RENAME:LSQFullEvents        10730                       # Number of times rename has blocked due to LSQ full
system.switch_cpus_1.rename.RENAME:ROBFullEvents         1314                       # Number of times rename has blocked due to ROB full
system.switch_cpus_1.rename.RENAME:RenameLookups     18837301                       # Number of register rename lookups that rename has made
system.switch_cpus_1.rename.RENAME:RenamedInsts     14169187                       # Number of instructions processed by rename
system.switch_cpus_1.rename.RENAME:RenamedOperands      9258534                       # Number of destination operands rename has renamed
system.switch_cpus_1.rename.RENAME:RunCycles      3175640                       # Number of cycles rename is running
system.switch_cpus_1.rename.RENAME:SquashCycles       461794                       # Number of cycles rename is squashing
system.switch_cpus_1.rename.RENAME:UnblockCycles        12093                       # Number of cycles rename is unblocking
system.switch_cpus_1.rename.RENAME:UndoneMaps      2279696                       # Number of HB maps that are undone due to squashing
system.switch_cpus_1.rename.RENAME:serializeStallCycles            0                       # count of cycles rename stalled for serializing inst
system.switch_cpus_1.rename.RENAME:serializingInsts            0                       # count of serializing insts renamed
system.switch_cpus_1.rename.RENAME:skidInsts        23812                       # count of insts added to the skid buffer
system.switch_cpus_1.rename.RENAME:tempSerializingInsts            0                       # count of temporary serializing insts renamed
system.switch_cpus_1.timesIdled                   511                       # Number of times that the entire CPU went into an idle state and unscheduled itself

---------- End Simulation Statistics   ----------
