
---------- Begin Simulation Statistics ----------
host_inst_rate                                 259108                       # Simulator instruction rate (inst/s)
host_mem_usage                                 403472                       # Number of bytes of host memory used
host_seconds                                    77.19                       # Real time elapsed on the host
host_tick_rate                              315889465                       # Simulator tick rate (ticks/s)
sim_freq                                 1000000000000                       # Frequency of simulated ticks
sim_insts                                    20000010                       # Number of instructions simulated
sim_seconds                                  0.024383                       # Number of seconds simulated
sim_ticks                                 24382949000                       # Number of ticks simulated
system.cpu.dcache.ReadReq_accesses            2854308                       # number of ReadReq accesses(hits+misses)
system.cpu.dcache.ReadReq_avg_miss_latency 42843.988765                       # average ReadReq miss latency
system.cpu.dcache.ReadReq_avg_mshr_miss_latency 31540.532398                       # average ReadReq mshr miss latency
system.cpu.dcache.ReadReq_hits                2323843                       # number of ReadReq hits
system.cpu.dcache.ReadReq_miss_latency    22727236500                       # number of ReadReq miss cycles
system.cpu.dcache.ReadReq_miss_rate          0.185847                       # miss rate for ReadReq accesses
system.cpu.dcache.ReadReq_misses               530465                       # number of ReadReq misses
system.cpu.dcache.ReadReq_mshr_hits            216788                       # number of ReadReq MSHR hits
system.cpu.dcache.ReadReq_mshr_miss_latency   9893476500                       # number of ReadReq MSHR miss cycles
system.cpu.dcache.ReadReq_mshr_miss_rate     0.109895                       # mshr miss rate for ReadReq accesses
system.cpu.dcache.ReadReq_mshr_misses          313675                       # number of ReadReq MSHR misses
system.cpu.dcache.WriteReq_accesses           1670212                       # number of WriteReq accesses(hits+misses)
system.cpu.dcache.WriteReq_avg_miss_latency 56728.974626                       # average WriteReq miss latency
system.cpu.dcache.WriteReq_avg_mshr_miss_latency 47813.269005                       # average WriteReq mshr miss latency
system.cpu.dcache.WriteReq_hits               1163042                       # number of WriteReq hits
system.cpu.dcache.WriteReq_miss_latency   28771234061                       # number of WriteReq miss cycles
system.cpu.dcache.WriteReq_miss_rate         0.303656                       # miss rate for WriteReq accesses
system.cpu.dcache.WriteReq_misses              507170                       # number of WriteReq misses
system.cpu.dcache.WriteReq_mshr_hits           298233                       # number of WriteReq MSHR hits
system.cpu.dcache.WriteReq_mshr_miss_latency   9989960986                       # number of WriteReq MSHR miss cycles
system.cpu.dcache.WriteReq_mshr_miss_rate     0.125096                       # mshr miss rate for WriteReq accesses
system.cpu.dcache.WriteReq_mshr_misses         208937                       # number of WriteReq MSHR misses
system.cpu.dcache.avg_blocked_cycles::no_mshrs     no_value                       # average number of cycles each access was blocked
system.cpu.dcache.avg_blocked_cycles::no_targets 37183.817369                       # average number of cycles each access was blocked
system.cpu.dcache.avg_refs                   6.672034                       # Average number of references to valid blocks.
system.cpu.dcache.blocked::no_mshrs                 0                       # number of cycles access was blocked
system.cpu.dcache.blocked::no_targets           70771                       # number of cycles access was blocked
system.cpu.dcache.blocked_cycles::no_mshrs            0                       # number of cycles access was blocked
system.cpu.dcache.blocked_cycles::no_targets   2631535939                       # number of cycles access was blocked
system.cpu.dcache.cache_copies                      0                       # number of cache copies performed
system.cpu.dcache.demand_accesses             4524520                       # number of demand (read+write) accesses
system.cpu.dcache.demand_avg_miss_latency 49630.622098                       # average overall miss latency
system.cpu.dcache.demand_avg_mshr_miss_latency 38046.270438                       # average overall mshr miss latency
system.cpu.dcache.demand_hits                 3486885                       # number of demand (read+write) hits
system.cpu.dcache.demand_miss_latency     51498470561                       # number of demand (read+write) miss cycles
system.cpu.dcache.demand_miss_rate           0.229336                       # miss rate for demand accesses
system.cpu.dcache.demand_misses               1037635                       # number of demand (read+write) misses
system.cpu.dcache.demand_mshr_hits             515021                       # number of demand (read+write) MSHR hits
system.cpu.dcache.demand_mshr_miss_latency  19883437486                       # number of demand (read+write) MSHR miss cycles
system.cpu.dcache.demand_mshr_miss_rate      0.115507                       # mshr miss rate for demand accesses
system.cpu.dcache.demand_mshr_misses           522612                       # number of demand (read+write) MSHR misses
system.cpu.dcache.fast_writes                       0                       # number of fast writes performed
system.cpu.dcache.mshr_cap_events                   0                       # number of times MSHR cap was activated
system.cpu.dcache.no_allocate_misses                0                       # Number of misses that were no-allocate
system.cpu.dcache.occ_%::0                   0.997855                       # Average percentage of cache occupancy
system.cpu.dcache.occ_blocks::0           1021.803793                       # Average occupied blocks per context
system.cpu.dcache.overall_accesses            4524520                       # number of overall (read+write) accesses
system.cpu.dcache.overall_avg_miss_latency 49630.622098                       # average overall miss latency
system.cpu.dcache.overall_avg_mshr_miss_latency 38046.270438                       # average overall mshr miss latency
system.cpu.dcache.overall_avg_mshr_uncacheable_latency     no_value                       # average overall mshr uncacheable latency
system.cpu.dcache.overall_hits                3486885                       # number of overall hits
system.cpu.dcache.overall_miss_latency    51498470561                       # number of overall miss cycles
system.cpu.dcache.overall_miss_rate          0.229336                       # miss rate for overall accesses
system.cpu.dcache.overall_misses              1037635                       # number of overall misses
system.cpu.dcache.overall_mshr_hits            515021                       # number of overall MSHR hits
system.cpu.dcache.overall_mshr_miss_latency  19883437486                       # number of overall MSHR miss cycles
system.cpu.dcache.overall_mshr_miss_rate     0.115507                       # mshr miss rate for overall accesses
system.cpu.dcache.overall_mshr_misses          522612                       # number of overall MSHR misses
system.cpu.dcache.overall_mshr_uncacheable_latency            0                       # number of overall MSHR uncacheable cycles
system.cpu.dcache.overall_mshr_uncacheable_misses            0                       # number of overall MSHR uncacheable misses
system.cpu.dcache.prefetch_accuracy          no_value                       # ratio of good prefetches to total prefetches
system.cpu.dcache.prefetch_hits                     0                       # number of prefetched blocks that were accessed
system.cpu.dcache.replacements                 521588                       # number of replacements
system.cpu.dcache.sampled_refs                 522612                       # Sample count of references to valid blocks.
system.cpu.dcache.soft_prefetch_mshr_full            0                       # number of mshr full events for SW prefetching instrutions
system.cpu.dcache.tagsinuse               1021.803793                       # Cycle average of tags in use
system.cpu.dcache.total_refs                  3486885                       # Total number of references to valid blocks.
system.cpu.dcache.warmup_cycle           500267179000                       # Cycle when the warmup percentage was hit.
system.cpu.dcache.writebacks                   208529                       # number of writebacks
system.cpu.dtb.data_accesses                        2                       # DTB accesses
system.cpu.dtb.data_acv                             0                       # DTB access violations
system.cpu.dtb.data_hits                            2                       # DTB hits
system.cpu.dtb.data_misses                          0                       # DTB misses
system.cpu.dtb.fetch_accesses                       0                       # ITB accesses
system.cpu.dtb.fetch_acv                            0                       # ITB acv
system.cpu.dtb.fetch_hits                           0                       # ITB hits
system.cpu.dtb.fetch_misses                         0                       # ITB misses
system.cpu.dtb.read_accesses                        2                       # DTB read accesses
system.cpu.dtb.read_acv                             0                       # DTB read access violations
system.cpu.dtb.read_hits                            2                       # DTB read hits
system.cpu.dtb.read_misses                          0                       # DTB read misses
system.cpu.dtb.write_accesses                       0                       # DTB write accesses
system.cpu.dtb.write_acv                            0                       # DTB write access violations
system.cpu.dtb.write_hits                           0                       # DTB write hits
system.cpu.dtb.write_misses                         0                       # DTB write misses
system.cpu.icache.ReadReq_accesses           11695349                       # number of ReadReq accesses(hits+misses)
system.cpu.icache.ReadReq_avg_miss_latency 60991.071429                       # average ReadReq miss latency
system.cpu.icache.ReadReq_avg_mshr_miss_latency        59000                       # average ReadReq mshr miss latency
system.cpu.icache.ReadReq_hits               11695293                       # number of ReadReq hits
system.cpu.icache.ReadReq_miss_latency        3415500                       # number of ReadReq miss cycles
system.cpu.icache.ReadReq_miss_rate          0.000005                       # miss rate for ReadReq accesses
system.cpu.icache.ReadReq_misses                   56                       # number of ReadReq misses
system.cpu.icache.ReadReq_mshr_hits                 1                       # number of ReadReq MSHR hits
system.cpu.icache.ReadReq_mshr_miss_latency      3186000                       # number of ReadReq MSHR miss cycles
system.cpu.icache.ReadReq_mshr_miss_rate     0.000005                       # mshr miss rate for ReadReq accesses
system.cpu.icache.ReadReq_mshr_misses              54                       # number of ReadReq MSHR misses
system.cpu.icache.avg_blocked_cycles::no_mshrs     no_value                       # average number of cycles each access was blocked
system.cpu.icache.avg_blocked_cycles::no_targets     no_value                       # average number of cycles each access was blocked
system.cpu.icache.avg_refs               212641.690909                       # Average number of references to valid blocks.
system.cpu.icache.blocked::no_mshrs                 0                       # number of cycles access was blocked
system.cpu.icache.blocked::no_targets               0                       # number of cycles access was blocked
system.cpu.icache.blocked_cycles::no_mshrs            0                       # number of cycles access was blocked
system.cpu.icache.blocked_cycles::no_targets            0                       # number of cycles access was blocked
system.cpu.icache.cache_copies                      0                       # number of cache copies performed
system.cpu.icache.demand_accesses            11695349                       # number of demand (read+write) accesses
system.cpu.icache.demand_avg_miss_latency 60991.071429                       # average overall miss latency
system.cpu.icache.demand_avg_mshr_miss_latency        59000                       # average overall mshr miss latency
system.cpu.icache.demand_hits                11695293                       # number of demand (read+write) hits
system.cpu.icache.demand_miss_latency         3415500                       # number of demand (read+write) miss cycles
system.cpu.icache.demand_miss_rate           0.000005                       # miss rate for demand accesses
system.cpu.icache.demand_misses                    56                       # number of demand (read+write) misses
system.cpu.icache.demand_mshr_hits                  1                       # number of demand (read+write) MSHR hits
system.cpu.icache.demand_mshr_miss_latency      3186000                       # number of demand (read+write) MSHR miss cycles
system.cpu.icache.demand_mshr_miss_rate      0.000005                       # mshr miss rate for demand accesses
system.cpu.icache.demand_mshr_misses               54                       # number of demand (read+write) MSHR misses
system.cpu.icache.fast_writes                       0                       # number of fast writes performed
system.cpu.icache.mshr_cap_events                   0                       # number of times MSHR cap was activated
system.cpu.icache.no_allocate_misses                0                       # Number of misses that were no-allocate
system.cpu.icache.occ_%::0                   0.105758                       # Average percentage of cache occupancy
system.cpu.icache.occ_blocks::0             54.148117                       # Average occupied blocks per context
system.cpu.icache.overall_accesses           11695349                       # number of overall (read+write) accesses
system.cpu.icache.overall_avg_miss_latency 60991.071429                       # average overall miss latency
system.cpu.icache.overall_avg_mshr_miss_latency        59000                       # average overall mshr miss latency
system.cpu.icache.overall_avg_mshr_uncacheable_latency     no_value                       # average overall mshr uncacheable latency
system.cpu.icache.overall_hits               11695293                       # number of overall hits
system.cpu.icache.overall_miss_latency        3415500                       # number of overall miss cycles
system.cpu.icache.overall_miss_rate          0.000005                       # miss rate for overall accesses
system.cpu.icache.overall_misses                   56                       # number of overall misses
system.cpu.icache.overall_mshr_hits                 1                       # number of overall MSHR hits
system.cpu.icache.overall_mshr_miss_latency      3186000                       # number of overall MSHR miss cycles
system.cpu.icache.overall_mshr_miss_rate     0.000005                       # mshr miss rate for overall accesses
system.cpu.icache.overall_mshr_misses              54                       # number of overall MSHR misses
system.cpu.icache.overall_mshr_uncacheable_latency            0                       # number of overall MSHR uncacheable cycles
system.cpu.icache.overall_mshr_uncacheable_misses            0                       # number of overall MSHR uncacheable misses
system.cpu.icache.prefetch_accuracy          no_value                       # ratio of good prefetches to total prefetches
system.cpu.icache.prefetch_hits                     0                       # number of prefetched blocks that were accessed
system.cpu.icache.replacements                      0                       # number of replacements
system.cpu.icache.sampled_refs                     55                       # Sample count of references to valid blocks.
system.cpu.icache.soft_prefetch_mshr_full            0                       # number of mshr full events for SW prefetching instrutions
system.cpu.icache.tagsinuse                 54.148117                       # Cycle average of tags in use
system.cpu.icache.total_refs                 11695293                       # Total number of references to valid blocks.
system.cpu.icache.warmup_cycle                      0                       # Cycle when the warmup percentage was hit.
system.cpu.icache.writebacks                        0                       # number of writebacks
system.cpu.idle_fraction                            0                       # Percentage of idle cycles
system.cpu.itb.data_accesses                        0                       # DTB accesses
system.cpu.itb.data_acv                             0                       # DTB access violations
system.cpu.itb.data_hits                            0                       # DTB hits
system.cpu.itb.data_misses                          0                       # DTB misses
system.cpu.itb.fetch_accesses                       2                       # ITB accesses
system.cpu.itb.fetch_acv                            0                       # ITB acv
system.cpu.itb.fetch_hits                           2                       # ITB hits
system.cpu.itb.fetch_misses                         0                       # ITB misses
system.cpu.itb.read_accesses                        0                       # DTB read accesses
system.cpu.itb.read_acv                             0                       # DTB read access violations
system.cpu.itb.read_hits                            0                       # DTB read hits
system.cpu.itb.read_misses                          0                       # DTB read misses
system.cpu.itb.write_accesses                       0                       # DTB write accesses
system.cpu.itb.write_acv                            0                       # DTB write access violations
system.cpu.itb.write_hits                           0                       # DTB write hits
system.cpu.itb.write_misses                         0                       # DTB write misses
system.cpu.not_idle_fraction                        1                       # Percentage of non-idle cycles
system.cpu.numCycles                                2                       # number of cpu cycles simulated
system.cpu.num_insts                                2                       # Number of instructions executed
system.cpu.num_refs                                 2                       # Number of memory references
system.cpu.workload.PROG:num_syscalls               0                       # Number of system calls
system.l2.HardPFReq_avg_mshr_miss_latency 58461.056825                       # average HardPFReq mshr miss latency
system.l2.HardPFReq_mshr_miss_latency     13259084610                       # number of HardPFReq MSHR miss cycles
system.l2.HardPFReq_mshr_miss_rate                inf                       # mshr miss rate for HardPFReq accesses
system.l2.HardPFReq_mshr_misses                226802                       # number of HardPFReq MSHR misses
system.l2.ReadExReq_accesses                   208937                       # number of ReadExReq accesses(hits+misses)
system.l2.ReadExReq_avg_miss_latency     93817.343456                       # average ReadExReq miss latency
system.l2.ReadExReq_avg_mshr_miss_latency 87148.370914                       # average ReadExReq mshr miss latency
system.l2.ReadExReq_hits                       117525                       # number of ReadExReq hits
system.l2.ReadExReq_miss_latency           8576031000                       # number of ReadExReq miss cycles
system.l2.ReadExReq_miss_rate                0.437510                       # miss rate for ReadExReq accesses
system.l2.ReadExReq_misses                      91412                       # number of ReadExReq misses
system.l2.ReadExReq_mshr_hits                   15265                       # number of ReadExReq MSHR hits
system.l2.ReadExReq_mshr_miss_latency      6636087000                       # number of ReadExReq MSHR miss cycles
system.l2.ReadExReq_mshr_miss_rate           0.364450                       # mshr miss rate for ReadExReq accesses
system.l2.ReadExReq_mshr_misses                 76147                       # number of ReadExReq MSHR misses
system.l2.ReadReq_accesses                     313732                       # number of ReadReq accesses(hits+misses)
system.l2.ReadReq_avg_miss_latency       94495.416323                       # average ReadReq miss latency
system.l2.ReadReq_avg_mshr_miss_latency  87197.725478                       # average ReadReq mshr miss latency
system.l2.ReadReq_hits                         238574                       # number of ReadReq hits
system.l2.ReadReq_miss_latency             7102086500                       # number of ReadReq miss cycles
system.l2.ReadReq_miss_rate                  0.239561                       # miss rate for ReadReq accesses
system.l2.ReadReq_misses                        75158                       # number of ReadReq misses
system.l2.ReadReq_mshr_hits                     11845                       # number of ReadReq MSHR hits
system.l2.ReadReq_mshr_miss_latency        5520488000                       # number of ReadReq MSHR miss cycles
system.l2.ReadReq_mshr_miss_rate             0.201796                       # mshr miss rate for ReadReq accesses
system.l2.ReadReq_mshr_misses                   63310                       # number of ReadReq MSHR misses
system.l2.Writeback_accesses                   208529                       # number of Writeback accesses(hits+misses)
system.l2.Writeback_hits                       208529                       # number of Writeback hits
system.l2.avg_blocked_cycles::no_mshrs       no_value                       # average number of cycles each access was blocked
system.l2.avg_blocked_cycles::no_targets     no_value                       # average number of cycles each access was blocked
system.l2.avg_refs                           0.965369                       # Average number of references to valid blocks.
system.l2.blocked::no_mshrs                         0                       # number of cycles access was blocked
system.l2.blocked::no_targets                       0                       # number of cycles access was blocked
system.l2.blocked_cycles::no_mshrs                  0                       # number of cycles access was blocked
system.l2.blocked_cycles::no_targets                0                       # number of cycles access was blocked
system.l2.cache_copies                              0                       # number of cache copies performed
system.l2.demand_accesses                      522669                       # number of demand (read+write) accesses
system.l2.demand_avg_miss_latency        94123.296512                       # average overall miss latency
system.l2.demand_avg_mshr_miss_latency   87170.776655                       # average overall mshr miss latency
system.l2.demand_hits                          356099                       # number of demand (read+write) hits
system.l2.demand_miss_latency             15678117500                       # number of demand (read+write) miss cycles
system.l2.demand_miss_rate                   0.318691                       # miss rate for demand accesses
system.l2.demand_misses                        166570                       # number of demand (read+write) misses
system.l2.demand_mshr_hits                      27110                       # number of demand (read+write) MSHR hits
system.l2.demand_mshr_miss_latency        12156575000                       # number of demand (read+write) MSHR miss cycles
system.l2.demand_mshr_miss_rate              0.266817                       # mshr miss rate for demand accesses
system.l2.demand_mshr_misses                   139457                       # number of demand (read+write) MSHR misses
system.l2.fast_writes                               0                       # number of fast writes performed
system.l2.mshr_cap_events                           0                       # number of times MSHR cap was activated
system.l2.no_allocate_misses                        0                       # Number of misses that were no-allocate
system.l2.occ_%::0                           0.307530                       # Average percentage of cache occupancy
system.l2.occ_%::1                           0.347555                       # Average percentage of cache occupancy
system.l2.occ_blocks::0                   5038.569874                       # Average occupied blocks per context
system.l2.occ_blocks::1                   5694.335986                       # Average occupied blocks per context
system.l2.overall_accesses                     522669                       # number of overall (read+write) accesses
system.l2.overall_avg_miss_latency       94123.296512                       # average overall miss latency
system.l2.overall_avg_mshr_miss_latency  69392.587240                       # average overall mshr miss latency
system.l2.overall_avg_mshr_uncacheable_latency     no_value                       # average overall mshr uncacheable latency
system.l2.overall_hits                         356099                       # number of overall hits
system.l2.overall_miss_latency            15678117500                       # number of overall miss cycles
system.l2.overall_miss_rate                  0.318691                       # miss rate for overall accesses
system.l2.overall_misses                       166570                       # number of overall misses
system.l2.overall_mshr_hits                     27110                       # number of overall MSHR hits
system.l2.overall_mshr_miss_latency       25415659610                       # number of overall MSHR miss cycles
system.l2.overall_mshr_miss_rate             0.700748                       # mshr miss rate for overall accesses
system.l2.overall_mshr_misses                  366259                       # number of overall MSHR misses
system.l2.overall_mshr_uncacheable_latency            0                       # number of overall MSHR uncacheable cycles
system.l2.overall_mshr_uncacheable_misses            0                       # number of overall MSHR uncacheable misses
system.l2.prefetch_accuracy                  0.414079                       # ratio of good prefetches to total prefetches
system.l2.prefetch_hits                         93914                       # number of prefetched blocks that were accessed
system.l2.prefetcher.num_hwpf_already_in_prefetcher         6609                       # number of hwpf that were already in the prefetch queue
system.l2.prefetcher.num_hwpf_evicted               0                       # number of hwpf removed due to no buffer left
system.l2.prefetcher.num_hwpf_identified       261704                       # number of hwpf identified
system.l2.prefetcher.num_hwpf_issued           234255                       # number of hwpf issued
system.l2.prefetcher.num_hwpf_removed_MSHR_hit        20838                       # number of hwpf removed because MSHR allocated
system.l2.prefetcher.num_hwpf_span_page             0                       # number of hwpf spanning a virtual page
system.l2.prefetcher.num_hwpf_squashed_from_miss            0                       # number of hwpf that got squashed due to a miss aborting calculation time
system.l2.replacements                         354892                       # number of replacements
system.l2.sampled_refs                         365854                       # Sample count of references to valid blocks.
system.l2.soft_prefetch_mshr_full                   0                       # number of mshr full events for SW prefetching instrutions
system.l2.tagsinuse                      10732.905859                       # Cycle average of tags in use
system.l2.total_refs                           353184                       # Total number of references to valid blocks.
system.l2.warmup_cycle                              0                       # Cycle when the warmup percentage was hit.
system.l2.writebacks                           202703                       # number of writebacks
system.switch_cpus.dtb.data_accesses          2247102                       # DTB accesses
system.switch_cpus.dtb.data_acv                     0                       # DTB access violations
system.switch_cpus.dtb.data_hits              2245642                       # DTB hits
system.switch_cpus.dtb.data_misses               1460                       # DTB misses
system.switch_cpus.dtb.fetch_accesses               0                       # ITB accesses
system.switch_cpus.dtb.fetch_acv                    0                       # ITB acv
system.switch_cpus.dtb.fetch_hits                   0                       # ITB hits
system.switch_cpus.dtb.fetch_misses                 0                       # ITB misses
system.switch_cpus.dtb.read_accesses          1411189                       # DTB read accesses
system.switch_cpus.dtb.read_acv                     0                       # DTB read access violations
system.switch_cpus.dtb.read_hits              1410550                       # DTB read hits
system.switch_cpus.dtb.read_misses                639                       # DTB read misses
system.switch_cpus.dtb.write_accesses          835913                       # DTB write accesses
system.switch_cpus.dtb.write_acv                    0                       # DTB write access violations
system.switch_cpus.dtb.write_hits              835092                       # DTB write hits
system.switch_cpus.dtb.write_misses               821                       # DTB write misses
system.switch_cpus.idle_fraction                    1                       # Percentage of idle cycles
system.switch_cpus.itb.data_accesses                0                       # DTB accesses
system.switch_cpus.itb.data_acv                     0                       # DTB access violations
system.switch_cpus.itb.data_hits                    0                       # DTB hits
system.switch_cpus.itb.data_misses                  0                       # DTB misses
system.switch_cpus.itb.fetch_accesses        10001463                       # ITB accesses
system.switch_cpus.itb.fetch_acv                    0                       # ITB acv
system.switch_cpus.itb.fetch_hits            10001461                       # ITB hits
system.switch_cpus.itb.fetch_misses                 2                       # ITB misses
system.switch_cpus.itb.read_accesses                0                       # DTB read accesses
system.switch_cpus.itb.read_acv                     0                       # DTB read access violations
system.switch_cpus.itb.read_hits                    0                       # DTB read hits
system.switch_cpus.itb.read_misses                  0                       # DTB read misses
system.switch_cpus.itb.write_accesses               0                       # DTB write accesses
system.switch_cpus.itb.write_acv                    0                       # DTB write access violations
system.switch_cpus.itb.write_hits                   0                       # DTB write hits
system.switch_cpus.itb.write_misses                 0                       # DTB write misses
system.switch_cpus.not_idle_fraction                0                       # Percentage of non-idle cycles
system.switch_cpus.numCycles                 34696890                       # number of cpu cycles simulated
system.switch_cpus.num_insts                 10000001                       # Number of instructions executed
system.switch_cpus.num_refs                   2768258                       # Number of memory references
system.switch_cpus_1.BPredUnit.BTBCorrect            0                       # Number of correct BTB predictions (this stat may not work properly.
system.switch_cpus_1.BPredUnit.BTBHits          54549                       # Number of BTB hits
system.switch_cpus_1.BPredUnit.BTBLookups        55908                       # Number of BTB lookups
system.switch_cpus_1.BPredUnit.RASInCorrect            0                       # Number of incorrect RAS predictions.
system.switch_cpus_1.BPredUnit.condIncorrect          538                       # Number of conditional branches incorrect
system.switch_cpus_1.BPredUnit.condPredicted        55721                       # Number of conditional branches predicted
system.switch_cpus_1.BPredUnit.lookups          56034                       # Number of BP lookups
system.switch_cpus_1.BPredUnit.usedRAS              0                       # Number of times the RAS was used to get a target.
system.switch_cpus_1.commit.COM:branches        53216                       # Number of branches committed
system.switch_cpus_1.commit.COM:bw_lim_events       994514                       # number cycles where commit BW limit reached
system.switch_cpus_1.commit.COM:bw_limited            0                       # number of insts not committed due to BW limits
system.switch_cpus_1.commit.COM:committed_per_cycle::samples     12228698                       # Number of insts commited each cycle
system.switch_cpus_1.commit.COM:committed_per_cycle::mean     0.817775                       # Number of insts commited each cycle
system.switch_cpus_1.commit.COM:committed_per_cycle::stdev     2.301337                       # Number of insts commited each cycle
system.switch_cpus_1.commit.COM:committed_per_cycle::underflows            0      0.00%      0.00% # Number of insts commited each cycle
system.switch_cpus_1.commit.COM:committed_per_cycle::0     10634785     86.97%     86.97% # Number of insts commited each cycle
system.switch_cpus_1.commit.COM:committed_per_cycle::1       130399      1.07%     88.03% # Number of insts commited each cycle
system.switch_cpus_1.commit.COM:committed_per_cycle::2       119852      0.98%     89.01% # Number of insts commited each cycle
system.switch_cpus_1.commit.COM:committed_per_cycle::3        80208      0.66%     89.67% # Number of insts commited each cycle
system.switch_cpus_1.commit.COM:committed_per_cycle::4        79447      0.65%     90.32% # Number of insts commited each cycle
system.switch_cpus_1.commit.COM:committed_per_cycle::5        72997      0.60%     90.91% # Number of insts commited each cycle
system.switch_cpus_1.commit.COM:committed_per_cycle::6        64763      0.53%     91.44% # Number of insts commited each cycle
system.switch_cpus_1.commit.COM:committed_per_cycle::7        51733      0.42%     91.87% # Number of insts commited each cycle
system.switch_cpus_1.commit.COM:committed_per_cycle::8       994514      8.13%    100.00% # Number of insts commited each cycle
system.switch_cpus_1.commit.COM:committed_per_cycle::overflows            0      0.00%    100.00% # Number of insts commited each cycle
system.switch_cpus_1.commit.COM:committed_per_cycle::min_value            0                       # Number of insts commited each cycle
system.switch_cpus_1.commit.COM:committed_per_cycle::max_value            8                       # Number of insts commited each cycle
system.switch_cpus_1.commit.COM:committed_per_cycle::total     12228698                       # Number of insts commited each cycle
system.switch_cpus_1.commit.COM:count        10000321                       # Number of instructions committed
system.switch_cpus_1.commit.COM:loads         1723297                       # Number of loads committed
system.switch_cpus_1.commit.COM:membars             0                       # Number of memory barriers committed
system.switch_cpus_1.commit.COM:refs          2766884                       # Number of memory references committed
system.switch_cpus_1.commit.COM:swp_count            0                       # Number of s/w prefetches committed
system.switch_cpus_1.commit.branchMispredicts          537                       # The number of times a branch was mispredicted
system.switch_cpus_1.commit.commitCommittedInsts     10000321                       # The number of committed instructions
system.switch_cpus_1.commit.commitSquashedInsts      2537935                       # The number of squashed insts skipped by commit
system.switch_cpus_1.committedInsts          10000007                       # Number of Instructions Simulated
system.switch_cpus_1.committedInsts_total     10000007                       # Number of Instructions Simulated
system.switch_cpus_1.cpi                     1.406900                       # CPI: Cycles Per Instruction
system.switch_cpus_1.cpi_total               1.406900                       # CPI: Total CPI of All Threads
system.switch_cpus_1.decode.DECODE:BlockedCycles      6334837                       # Number of cycles decode is blocked
system.switch_cpus_1.decode.DECODE:BranchMispred            1                       # Number of times decode detected a branch misprediction
system.switch_cpus_1.decode.DECODE:BranchResolved          306                       # Number of times decode resolved a branch
system.switch_cpus_1.decode.DECODE:DecodedInsts     16864940                       # Number of instructions handled by decode
system.switch_cpus_1.decode.DECODE:IdleCycles      3587275                       # Number of cycles decode is idle
system.switch_cpus_1.decode.DECODE:RunCycles      2239631                       # Number of cycles decode is running
system.switch_cpus_1.decode.DECODE:SquashCycles       507865                       # Number of cycles decode is squashing
system.switch_cpus_1.decode.DECODE:SquashedInsts            8                       # Number of squashed instructions handled by decode
system.switch_cpus_1.decode.DECODE:UnblockCycles        66954                       # Number of cycles decode is unblocking
system.switch_cpus_1.dtb.data_accesses        3296011                       # DTB accesses
system.switch_cpus_1.dtb.data_acv                   0                       # DTB access violations
system.switch_cpus_1.dtb.data_hits            3291147                       # DTB hits
system.switch_cpus_1.dtb.data_misses             4864                       # DTB misses
system.switch_cpus_1.dtb.fetch_accesses             0                       # ITB accesses
system.switch_cpus_1.dtb.fetch_acv                  0                       # ITB acv
system.switch_cpus_1.dtb.fetch_hits                 0                       # ITB hits
system.switch_cpus_1.dtb.fetch_misses               0                       # ITB misses
system.switch_cpus_1.dtb.read_accesses        2427965                       # DTB read accesses
system.switch_cpus_1.dtb.read_acv                   0                       # DTB read access violations
system.switch_cpus_1.dtb.read_hits            2425901                       # DTB read hits
system.switch_cpus_1.dtb.read_misses             2064                       # DTB read misses
system.switch_cpus_1.dtb.write_accesses        868046                       # DTB write accesses
system.switch_cpus_1.dtb.write_acv                  0                       # DTB write access violations
system.switch_cpus_1.dtb.write_hits            865246                       # DTB write hits
system.switch_cpus_1.dtb.write_misses            2800                       # DTB write misses
system.switch_cpus_1.fetch.Branches             56034                       # Number of branches that fetch encountered
system.switch_cpus_1.fetch.CacheLines         1693886                       # Number of cache lines fetched
system.switch_cpus_1.fetch.Cycles             4007267                       # Number of cycles fetch has run and was not squashing or blocked
system.switch_cpus_1.fetch.IcacheSquashes         8385                       # Number of outstanding Icache misses that were squashed
system.switch_cpus_1.fetch.Insts             16916297                       # Number of instructions fetch has processed
system.switch_cpus_1.fetch.SquashCycles        434655                       # Number of cycles fetch has spent squashing
system.switch_cpus_1.fetch.branchRate        0.003983                       # Number of branch fetches per cycle
system.switch_cpus_1.fetch.icacheStallCycles      1693886                       # Number of cycles fetch is stalled on an Icache miss
system.switch_cpus_1.fetch.predictedBranches        54549                       # Number of branches that fetch has predicted taken
system.switch_cpus_1.fetch.rate              1.202380                       # Number of inst fetches per cycle
system.switch_cpus_1.fetch.rateDist::samples     12736563                       # Number of instructions fetched each cycle (Total)
system.switch_cpus_1.fetch.rateDist::mean     1.328168                       # Number of instructions fetched each cycle (Total)
system.switch_cpus_1.fetch.rateDist::stdev     2.901927                       # Number of instructions fetched each cycle (Total)
system.switch_cpus_1.fetch.rateDist::underflows            0      0.00%      0.00% # Number of instructions fetched each cycle (Total)
system.switch_cpus_1.fetch.rateDist::0       10423184     81.84%     81.84% # Number of instructions fetched each cycle (Total)
system.switch_cpus_1.fetch.rateDist::1          43677      0.34%     82.18% # Number of instructions fetched each cycle (Total)
system.switch_cpus_1.fetch.rateDist::2          22687      0.18%     82.36% # Number of instructions fetched each cycle (Total)
system.switch_cpus_1.fetch.rateDist::3          76704      0.60%     82.96% # Number of instructions fetched each cycle (Total)
system.switch_cpus_1.fetch.rateDist::4          85251      0.67%     83.63% # Number of instructions fetched each cycle (Total)
system.switch_cpus_1.fetch.rateDist::5          40452      0.32%     83.95% # Number of instructions fetched each cycle (Total)
system.switch_cpus_1.fetch.rateDist::6         107242      0.84%     84.79% # Number of instructions fetched each cycle (Total)
system.switch_cpus_1.fetch.rateDist::7          88510      0.69%     85.48% # Number of instructions fetched each cycle (Total)
system.switch_cpus_1.fetch.rateDist::8        1848856     14.52%    100.00% # Number of instructions fetched each cycle (Total)
system.switch_cpus_1.fetch.rateDist::overflows            0      0.00%    100.00% # Number of instructions fetched each cycle (Total)
system.switch_cpus_1.fetch.rateDist::min_value            0                       # Number of instructions fetched each cycle (Total)
system.switch_cpus_1.fetch.rateDist::max_value            8                       # Number of instructions fetched each cycle (Total)
system.switch_cpus_1.fetch.rateDist::total     12736563                       # Number of instructions fetched each cycle (Total)
system.switch_cpus_1.idleCycles               1332444                       # Total number of cycles that the CPU has spent unscheduled due to idling
system.switch_cpus_1.iew.EXEC:branches          54576                       # Number of branches executed
system.switch_cpus_1.iew.EXEC:nop                 326                       # number of nop insts executed
system.switch_cpus_1.iew.EXEC:rate           0.862532                       # Inst execution rate
system.switch_cpus_1.iew.EXEC:refs            3922643                       # number of memory reference insts executed
system.switch_cpus_1.iew.EXEC:stores          1086585                       # Number of stores executed
system.switch_cpus_1.iew.EXEC:swp                   0                       # number of swp insts executed
system.switch_cpus_1.iew.WB:consumers         6439110                       # num instructions consuming a value
system.switch_cpus_1.iew.WB:count            11142472                       # cumulative count of insts written-back
system.switch_cpus_1.iew.WB:fanout           0.832554                       # average fanout of values written-back
system.switch_cpus_1.iew.WB:penalized               0                       # number of instrctions required to write to 'other' IQ
system.switch_cpus_1.iew.WB:penalized_rate            0                       # fraction of instructions written-back that wrote to 'other' IQ
system.switch_cpus_1.iew.WB:producers         5360908                       # num instructions producing a value
system.switch_cpus_1.iew.WB:rate             0.791987                       # insts written-back per cycle
system.switch_cpus_1.iew.WB:sent             11147425                       # cumulative count of insts sent to commit
system.switch_cpus_1.iew.branchMispredicts          540                       # Number of branch mispredicts detected at execute
system.switch_cpus_1.iew.iewBlockCycles       1542910                       # Number of cycles IEW is blocking
system.switch_cpus_1.iew.iewDispLoadInsts      2887745                       # Number of dispatched load instructions
system.switch_cpus_1.iew.iewDispNonSpecInsts            0                       # Number of dispatched non-speculative instructions
system.switch_cpus_1.iew.iewDispSquashedInsts       696434                       # Number of squashed instructions skipped by dispatch
system.switch_cpus_1.iew.iewDispStoreInsts      1090839                       # Number of dispatched store instructions
system.switch_cpus_1.iew.iewDispatchedInsts     12550998                       # Number of instructions dispatched to IQ
system.switch_cpus_1.iew.iewExecLoadInsts      2836058                       # Number of load instructions executed
system.switch_cpus_1.iew.iewExecSquashedInsts       302861                       # Number of squashed instructions skipped in execute
system.switch_cpus_1.iew.iewExecutedInsts     12134964                       # Number of executed instructions
system.switch_cpus_1.iew.iewIQFullEvents        33881                       # Number of times the IQ has become full, causing a stall
system.switch_cpus_1.iew.iewIdleCycles              0                       # Number of cycles IEW is idle
system.switch_cpus_1.iew.iewLSQFullEvents          686                       # Number of times the LSQ has become full, causing a stall
system.switch_cpus_1.iew.iewSquashCycles       507865                       # Number of cycles IEW is squashing
system.switch_cpus_1.iew.iewUnblockCycles        72984                       # Number of cycles IEW is unblocking
system.switch_cpus_1.iew.lsq.thread.0.blockedLoads            0                       # Number of blocked loads due to partial load-store forwarding
system.switch_cpus_1.iew.lsq.thread.0.cacheBlocked      1031589                       # Number of times an access to memory failed due to the cache being blocked
system.switch_cpus_1.iew.lsq.thread.0.forwLoads            0                       # Number of loads that had data forwarded from stores
system.switch_cpus_1.iew.lsq.thread.0.ignoredResponses            0                       # Number of memory responses ignored because the instruction is squashed
system.switch_cpus_1.iew.lsq.thread.0.invAddrLoads            0                       # Number of loads ignored due to an invalid address
system.switch_cpus_1.iew.lsq.thread.0.invAddrSwpfs            0                       # Number of software prefetches ignored due to an invalid address
system.switch_cpus_1.iew.lsq.thread.0.memOrderViolation            0                       # Number of memory ordering violations
system.switch_cpus_1.iew.lsq.thread.0.rescheduledLoads            0                       # Number of loads that were rescheduled
system.switch_cpus_1.iew.lsq.thread.0.squashedLoads      1164423                       # Number of loads squashed
system.switch_cpus_1.iew.lsq.thread.0.squashedStores        47237                       # Number of stores squashed
system.switch_cpus_1.iew.memOrderViolationEvents            0                       # Number of memory order violations
system.switch_cpus_1.iew.predictedNotTakenIncorrect           69                       # Number of branches that were predicted not taken incorrectly
system.switch_cpus_1.iew.predictedTakenIncorrect          471                       # Number of branches that were predicted taken incorrectly
system.switch_cpus_1.ipc                     0.710783                       # IPC: Instructions Per Cycle
system.switch_cpus_1.ipc_total               0.710783                       # IPC: Total IPC of All Threads
system.switch_cpus_1.iq.ISSUE:FU_type_0::No_OpClass            0      0.00%      0.00% # Type of FU issued
system.switch_cpus_1.iq.ISSUE:FU_type_0::IntAlu      3146438     25.30%     25.30% # Type of FU issued
system.switch_cpus_1.iq.ISSUE:FU_type_0::IntMult          244      0.00%     25.30% # Type of FU issued
system.switch_cpus_1.iq.ISSUE:FU_type_0::IntDiv            0      0.00%     25.30% # Type of FU issued
system.switch_cpus_1.iq.ISSUE:FU_type_0::FloatAdd      2708613     21.78%     47.08% # Type of FU issued
system.switch_cpus_1.iq.ISSUE:FU_type_0::FloatCmp            0      0.00%     47.08% # Type of FU issued
system.switch_cpus_1.iq.ISSUE:FU_type_0::FloatCvt            0      0.00%     47.08% # Type of FU issued
system.switch_cpus_1.iq.ISSUE:FU_type_0::FloatMult      2392329     19.23%     66.31% # Type of FU issued
system.switch_cpus_1.iq.ISSUE:FU_type_0::FloatDiv       249273      2.00%     68.31% # Type of FU issued
system.switch_cpus_1.iq.ISSUE:FU_type_0::FloatSqrt            0      0.00%     68.31% # Type of FU issued
system.switch_cpus_1.iq.ISSUE:FU_type_0::MemRead      2853336     22.94%     91.26% # Type of FU issued
system.switch_cpus_1.iq.ISSUE:FU_type_0::MemWrite      1087596      8.74%    100.00% # Type of FU issued
system.switch_cpus_1.iq.ISSUE:FU_type_0::IprAccess            0      0.00%    100.00% # Type of FU issued
system.switch_cpus_1.iq.ISSUE:FU_type_0::InstPrefetch            0      0.00%    100.00% # Type of FU issued
system.switch_cpus_1.iq.ISSUE:FU_type_0::total     12437829                       # Type of FU issued
system.switch_cpus_1.iq.ISSUE:fu_busy_cnt      1105568                       # FU busy when requested
system.switch_cpus_1.iq.ISSUE:fu_busy_rate     0.088888                       # FU busy rate (busy events/executed inst)
system.switch_cpus_1.iq.ISSUE:fu_full::No_OpClass            0      0.00%      0.00% # attempts to use FU when none available
system.switch_cpus_1.iq.ISSUE:fu_full::IntAlu            8      0.00%      0.00% # attempts to use FU when none available
system.switch_cpus_1.iq.ISSUE:fu_full::IntMult            0      0.00%      0.00% # attempts to use FU when none available
system.switch_cpus_1.iq.ISSUE:fu_full::IntDiv            0      0.00%      0.00% # attempts to use FU when none available
system.switch_cpus_1.iq.ISSUE:fu_full::FloatAdd         2773      0.25%      0.25% # attempts to use FU when none available
system.switch_cpus_1.iq.ISSUE:fu_full::FloatCmp            0      0.00%      0.25% # attempts to use FU when none available
system.switch_cpus_1.iq.ISSUE:fu_full::FloatCvt            0      0.00%      0.25% # attempts to use FU when none available
system.switch_cpus_1.iq.ISSUE:fu_full::FloatMult       777493     70.33%     70.58% # attempts to use FU when none available
system.switch_cpus_1.iq.ISSUE:fu_full::FloatDiv       308708     27.92%     98.50% # attempts to use FU when none available
system.switch_cpus_1.iq.ISSUE:fu_full::FloatSqrt            0      0.00%     98.50% # attempts to use FU when none available
system.switch_cpus_1.iq.ISSUE:fu_full::MemRead        15750      1.42%     99.92% # attempts to use FU when none available
system.switch_cpus_1.iq.ISSUE:fu_full::MemWrite          836      0.08%    100.00% # attempts to use FU when none available
system.switch_cpus_1.iq.ISSUE:fu_full::IprAccess            0      0.00%    100.00% # attempts to use FU when none available
system.switch_cpus_1.iq.ISSUE:fu_full::InstPrefetch            0      0.00%    100.00% # attempts to use FU when none available
system.switch_cpus_1.iq.ISSUE:issued_per_cycle::samples     12736563                       # Number of insts issued each cycle
system.switch_cpus_1.iq.ISSUE:issued_per_cycle::mean     0.976545                       # Number of insts issued each cycle
system.switch_cpus_1.iq.ISSUE:issued_per_cycle::stdev     1.495361                       # Number of insts issued each cycle
system.switch_cpus_1.iq.ISSUE:issued_per_cycle::underflows            0      0.00%      0.00% # Number of insts issued each cycle
system.switch_cpus_1.iq.ISSUE:issued_per_cycle::0      7351668     57.72%     57.72% # Number of insts issued each cycle
system.switch_cpus_1.iq.ISSUE:issued_per_cycle::1      2048394     16.08%     73.80% # Number of insts issued each cycle
system.switch_cpus_1.iq.ISSUE:issued_per_cycle::2      1499017     11.77%     85.57% # Number of insts issued each cycle
system.switch_cpus_1.iq.ISSUE:issued_per_cycle::3       858325      6.74%     92.31% # Number of insts issued each cycle
system.switch_cpus_1.iq.ISSUE:issued_per_cycle::4       476558      3.74%     96.05% # Number of insts issued each cycle
system.switch_cpus_1.iq.ISSUE:issued_per_cycle::5       233509      1.83%     97.89% # Number of insts issued each cycle
system.switch_cpus_1.iq.ISSUE:issued_per_cycle::6       161885      1.27%     99.16% # Number of insts issued each cycle
system.switch_cpus_1.iq.ISSUE:issued_per_cycle::7        86317      0.68%     99.84% # Number of insts issued each cycle
system.switch_cpus_1.iq.ISSUE:issued_per_cycle::8        20890      0.16%    100.00% # Number of insts issued each cycle
system.switch_cpus_1.iq.ISSUE:issued_per_cycle::overflows            0      0.00%    100.00% # Number of insts issued each cycle
system.switch_cpus_1.iq.ISSUE:issued_per_cycle::min_value            0                       # Number of insts issued each cycle
system.switch_cpus_1.iq.ISSUE:issued_per_cycle::max_value            8                       # Number of insts issued each cycle
system.switch_cpus_1.iq.ISSUE:issued_per_cycle::total     12736563                       # Number of insts issued each cycle
system.switch_cpus_1.iq.ISSUE:rate           0.884059                       # Inst issue rate
system.switch_cpus_1.iq.iqInstsAdded         12550672                       # Number of instructions added to the IQ (excludes non-spec)
system.switch_cpus_1.iq.iqInstsIssued        12437829                       # Number of instructions issued
system.switch_cpus_1.iq.iqSquashedInstsExamined      2550483                       # Number of squashed instructions iterated over during squash; mainly for profiling
system.switch_cpus_1.iq.iqSquashedInstsIssued        37462                       # Number of squashed instructions issued
system.switch_cpus_1.iq.iqSquashedOperandsExamined      1191513                       # Number of squashed operands that are examined and possibly removed from graph
system.switch_cpus_1.itb.data_accesses              0                       # DTB accesses
system.switch_cpus_1.itb.data_acv                   0                       # DTB access violations
system.switch_cpus_1.itb.data_hits                  0                       # DTB hits
system.switch_cpus_1.itb.data_misses                0                       # DTB misses
system.switch_cpus_1.itb.fetch_accesses       1693888                       # ITB accesses
system.switch_cpus_1.itb.fetch_acv                  0                       # ITB acv
system.switch_cpus_1.itb.fetch_hits           1693886                       # ITB hits
system.switch_cpus_1.itb.fetch_misses               2                       # ITB misses
system.switch_cpus_1.itb.read_accesses              0                       # DTB read accesses
system.switch_cpus_1.itb.read_acv                   0                       # DTB read access violations
system.switch_cpus_1.itb.read_hits                  0                       # DTB read hits
system.switch_cpus_1.itb.read_misses                0                       # DTB read misses
system.switch_cpus_1.itb.write_accesses             0                       # DTB write accesses
system.switch_cpus_1.itb.write_acv                  0                       # DTB write access violations
system.switch_cpus_1.itb.write_hits                 0                       # DTB write hits
system.switch_cpus_1.itb.write_misses               0                       # DTB write misses
system.switch_cpus_1.memDep0.conflictingLoads            0                       # Number of conflicting loads.
system.switch_cpus_1.memDep0.conflictingStores            0                       # Number of conflicting stores.
system.switch_cpus_1.memDep0.insertedLoads      2887745                       # Number of loads inserted to the mem dependence unit.
system.switch_cpus_1.memDep0.insertedStores      1090839                       # Number of stores inserted to the mem dependence unit.
system.switch_cpus_1.numCycles               14069007                       # number of cpu cycles simulated
system.switch_cpus_1.rename.RENAME:BlockCycles      4399404                       # Number of cycles rename is blocking
system.switch_cpus_1.rename.RENAME:CommittedMaps      8590499                       # Number of HB maps that are committed
system.switch_cpus_1.rename.RENAME:IQFullEvents       235964                       # Number of times rename has blocked due to IQ full
system.switch_cpus_1.rename.RENAME:IdleCycles      4083949                       # Number of cycles rename is idle
system.switch_cpus_1.rename.RENAME:LSQFullEvents      1859072                       # Number of times rename has blocked due to LSQ full
system.switch_cpus_1.rename.RENAME:ROBFullEvents        15962                       # Number of times rename has blocked due to ROB full
system.switch_cpus_1.rename.RENAME:RenameLookups     22973968                       # Number of register rename lookups that rename has made
system.switch_cpus_1.rename.RENAME:RenamedInsts     14692662                       # Number of instructions processed by rename
system.switch_cpus_1.rename.RENAME:RenamedOperands     12943036                       # Number of destination operands rename has renamed
system.switch_cpus_1.rename.RENAME:RunCycles      1734069                       # Number of cycles rename is running
system.switch_cpus_1.rename.RENAME:SquashCycles       507865                       # Number of cycles rename is squashing
system.switch_cpus_1.rename.RENAME:UnblockCycles      2011275                       # Number of cycles rename is unblocking
system.switch_cpus_1.rename.RENAME:UndoneMaps      4352402                       # Number of HB maps that are undone due to squashing
system.switch_cpus_1.rename.RENAME:serializeStallCycles            0                       # count of cycles rename stalled for serializing inst
system.switch_cpus_1.rename.RENAME:serializingInsts            0                       # count of serializing insts renamed
system.switch_cpus_1.rename.RENAME:skidInsts      6458546                       # count of insts added to the skid buffer
system.switch_cpus_1.rename.RENAME:tempSerializingInsts            0                       # count of temporary serializing insts renamed
system.switch_cpus_1.timesIdled                 24552                       # Number of times that the entire CPU went into an idle state and unscheduled itself

---------- End Simulation Statistics   ----------
