
---------- Begin Simulation Statistics ----------
host_inst_rate                                 119641                       # Simulator instruction rate (inst/s)
host_mem_usage                                 322720                       # Number of bytes of host memory used
host_seconds                                   167.17                       # Real time elapsed on the host
host_tick_rate                              594022647                       # Simulator tick rate (ticks/s)
sim_freq                                 1000000000000                       # Frequency of simulated ticks
sim_insts                                    20000008                       # Number of instructions simulated
sim_seconds                                  0.099301                       # Number of seconds simulated
sim_ticks                                 99300704000                       # Number of ticks simulated
system.cpu.dcache.ReadReq_accesses            4722556                       # number of ReadReq accesses(hits+misses)
system.cpu.dcache.ReadReq_avg_miss_latency 86139.032470                       # average ReadReq miss latency
system.cpu.dcache.ReadReq_avg_mshr_miss_latency 84385.309215                       # average ReadReq mshr miss latency
system.cpu.dcache.ReadReq_hits                1808600                       # number of ReadReq hits
system.cpu.dcache.ReadReq_miss_latency   251005350500                       # number of ReadReq miss cycles
system.cpu.dcache.ReadReq_miss_rate          0.617029                       # miss rate for ReadReq accesses
system.cpu.dcache.ReadReq_misses              2913956                       # number of ReadReq misses
system.cpu.dcache.ReadReq_mshr_hits            333909                       # number of ReadReq MSHR hits
system.cpu.dcache.ReadReq_mshr_miss_latency 217717979500                       # number of ReadReq MSHR miss cycles
system.cpu.dcache.ReadReq_mshr_miss_rate     0.546324                       # mshr miss rate for ReadReq accesses
system.cpu.dcache.ReadReq_mshr_misses         2580046                       # number of ReadReq MSHR misses
system.cpu.dcache.WriteReq_accesses           1567315                       # number of WriteReq accesses(hits+misses)
system.cpu.dcache.WriteReq_avg_miss_latency 133840.460177                       # average WriteReq miss latency
system.cpu.dcache.WriteReq_avg_mshr_miss_latency 137335.916741                       # average WriteReq mshr miss latency
system.cpu.dcache.WriteReq_hits                983010                       # number of WriteReq hits
system.cpu.dcache.WriteReq_miss_latency   78203650084                       # number of WriteReq miss cycles
system.cpu.dcache.WriteReq_miss_rate         0.372806                       # miss rate for WriteReq accesses
system.cpu.dcache.WriteReq_misses              584305                       # number of WriteReq misses
system.cpu.dcache.WriteReq_mshr_hits            40030                       # number of WriteReq MSHR hits
system.cpu.dcache.WriteReq_mshr_miss_latency  74748506084                       # number of WriteReq MSHR miss cycles
system.cpu.dcache.WriteReq_mshr_miss_rate     0.347266                       # mshr miss rate for WriteReq accesses
system.cpu.dcache.WriteReq_mshr_misses         544275                       # number of WriteReq MSHR misses
system.cpu.dcache.avg_blocked_cycles::no_mshrs 23796.522028                       # average number of cycles each access was blocked
system.cpu.dcache.avg_blocked_cycles::no_targets 42835.849057                       # average number of cycles each access was blocked
system.cpu.dcache.avg_refs                   1.275301                       # Average number of references to valid blocks.
system.cpu.dcache.blocked::no_mshrs            192932                       # number of cycles access was blocked
system.cpu.dcache.blocked::no_targets           19875                       # number of cycles access was blocked
system.cpu.dcache.blocked_cycles::no_mshrs   4591110588                       # number of cycles access was blocked
system.cpu.dcache.blocked_cycles::no_targets    851362500                       # number of cycles access was blocked
system.cpu.dcache.cache_copies                      0                       # number of cache copies performed
system.cpu.dcache.demand_accesses             6289871                       # number of demand (read+write) accesses
system.cpu.dcache.demand_avg_miss_latency 94106.471925                       # average overall miss latency
system.cpu.dcache.demand_avg_mshr_miss_latency 93609.614884                       # average overall mshr miss latency
system.cpu.dcache.demand_hits                 2791610                       # number of demand (read+write) hits
system.cpu.dcache.demand_miss_latency    329209000584                       # number of demand (read+write) miss cycles
system.cpu.dcache.demand_miss_rate           0.556174                       # miss rate for demand accesses
system.cpu.dcache.demand_misses               3498261                       # number of demand (read+write) misses
system.cpu.dcache.demand_mshr_hits             373939                       # number of demand (read+write) MSHR hits
system.cpu.dcache.demand_mshr_miss_latency 292466485584                       # number of demand (read+write) MSHR miss cycles
system.cpu.dcache.demand_mshr_miss_rate      0.496723                       # mshr miss rate for demand accesses
system.cpu.dcache.demand_mshr_misses          3124321                       # number of demand (read+write) MSHR misses
system.cpu.dcache.fast_writes                       0                       # number of fast writes performed
system.cpu.dcache.mshr_cap_events                   0                       # number of times MSHR cap was activated
system.cpu.dcache.no_allocate_misses                0                       # Number of misses that were no-allocate
system.cpu.dcache.occ_%::0                   0.999741                       # Average percentage of cache occupancy
system.cpu.dcache.occ_%::1                  -0.001381                       # Average percentage of cache occupancy
system.cpu.dcache.occ_blocks::0           1023.735079                       # Average occupied blocks per context
system.cpu.dcache.occ_blocks::1             -1.413639                       # Average occupied blocks per context
system.cpu.dcache.overall_accesses            6289871                       # number of overall (read+write) accesses
system.cpu.dcache.overall_avg_miss_latency 94106.471925                       # average overall miss latency
system.cpu.dcache.overall_avg_mshr_miss_latency 93609.614884                       # average overall mshr miss latency
system.cpu.dcache.overall_avg_mshr_uncacheable_latency     no_value                       # average overall mshr uncacheable latency
system.cpu.dcache.overall_hits                2791610                       # number of overall hits
system.cpu.dcache.overall_miss_latency   329209000584                       # number of overall miss cycles
system.cpu.dcache.overall_miss_rate          0.556174                       # miss rate for overall accesses
system.cpu.dcache.overall_misses              3498261                       # number of overall misses
system.cpu.dcache.overall_mshr_hits            373939                       # number of overall MSHR hits
system.cpu.dcache.overall_mshr_miss_latency 292466485584                       # number of overall MSHR miss cycles
system.cpu.dcache.overall_mshr_miss_rate     0.496723                       # mshr miss rate for overall accesses
system.cpu.dcache.overall_mshr_misses         3124321                       # number of overall MSHR misses
system.cpu.dcache.overall_mshr_uncacheable_latency            0                       # number of overall MSHR uncacheable cycles
system.cpu.dcache.overall_mshr_uncacheable_misses            0                       # number of overall MSHR uncacheable misses
system.cpu.dcache.prefetch_accuracy          no_value                       # ratio of good prefetches to total prefetches
system.cpu.dcache.prefetch_hits                     0                       # number of prefetched blocks that were accessed
system.cpu.dcache.replacements                2599047                       # number of replacements
system.cpu.dcache.sampled_refs                2600071                       # Sample count of references to valid blocks.
system.cpu.dcache.soft_prefetch_mshr_full            0                       # number of mshr full events for SW prefetching instrutions
system.cpu.dcache.tagsinuse               1023.028315                       # Cycle average of tags in use
system.cpu.dcache.total_refs                  3315873                       # Total number of references to valid blocks.
system.cpu.dcache.warmup_cycle           500959478000                       # Cycle when the warmup percentage was hit.
system.cpu.dcache.writebacks                   543830                       # number of writebacks
system.cpu.dtb.data_accesses                        1                       # DTB accesses
system.cpu.dtb.data_acv                             0                       # DTB access violations
system.cpu.dtb.data_hits                            1                       # DTB hits
system.cpu.dtb.data_misses                          0                       # DTB misses
system.cpu.dtb.fetch_accesses                       0                       # ITB accesses
system.cpu.dtb.fetch_acv                            0                       # ITB acv
system.cpu.dtb.fetch_hits                           0                       # ITB hits
system.cpu.dtb.fetch_misses                         0                       # ITB misses
system.cpu.dtb.read_accesses                        1                       # DTB read accesses
system.cpu.dtb.read_acv                             0                       # DTB read access violations
system.cpu.dtb.read_hits                            1                       # DTB read hits
system.cpu.dtb.read_misses                          0                       # DTB read misses
system.cpu.dtb.write_accesses                       0                       # DTB write accesses
system.cpu.dtb.write_acv                            0                       # DTB write access violations
system.cpu.dtb.write_hits                           0                       # DTB write hits
system.cpu.dtb.write_misses                         0                       # DTB write misses
system.cpu.icache.ReadReq_accesses           13772557                       # number of ReadReq accesses(hits+misses)
system.cpu.icache.ReadReq_avg_miss_latency 68830.708661                       # average ReadReq miss latency
system.cpu.icache.ReadReq_avg_mshr_miss_latency        66672                       # average ReadReq mshr miss latency
system.cpu.icache.ReadReq_hits               13772430                       # number of ReadReq hits
system.cpu.icache.ReadReq_miss_latency        8741500                       # number of ReadReq miss cycles
system.cpu.icache.ReadReq_miss_rate          0.000009                       # miss rate for ReadReq accesses
system.cpu.icache.ReadReq_misses                  127                       # number of ReadReq misses
system.cpu.icache.ReadReq_mshr_hits                 1                       # number of ReadReq MSHR hits
system.cpu.icache.ReadReq_mshr_miss_latency      8334000                       # number of ReadReq MSHR miss cycles
system.cpu.icache.ReadReq_mshr_miss_rate     0.000009                       # mshr miss rate for ReadReq accesses
system.cpu.icache.ReadReq_mshr_misses             125                       # number of ReadReq MSHR misses
system.cpu.icache.avg_blocked_cycles::no_mshrs     no_value                       # average number of cycles each access was blocked
system.cpu.icache.avg_blocked_cycles::no_targets     no_value                       # average number of cycles each access was blocked
system.cpu.icache.avg_refs                     109305                       # Average number of references to valid blocks.
system.cpu.icache.blocked::no_mshrs                 0                       # number of cycles access was blocked
system.cpu.icache.blocked::no_targets               0                       # number of cycles access was blocked
system.cpu.icache.blocked_cycles::no_mshrs            0                       # number of cycles access was blocked
system.cpu.icache.blocked_cycles::no_targets            0                       # number of cycles access was blocked
system.cpu.icache.cache_copies                      0                       # number of cache copies performed
system.cpu.icache.demand_accesses            13772557                       # number of demand (read+write) accesses
system.cpu.icache.demand_avg_miss_latency 68830.708661                       # average overall miss latency
system.cpu.icache.demand_avg_mshr_miss_latency        66672                       # average overall mshr miss latency
system.cpu.icache.demand_hits                13772430                       # number of demand (read+write) hits
system.cpu.icache.demand_miss_latency         8741500                       # number of demand (read+write) miss cycles
system.cpu.icache.demand_miss_rate           0.000009                       # miss rate for demand accesses
system.cpu.icache.demand_misses                   127                       # number of demand (read+write) misses
system.cpu.icache.demand_mshr_hits                  1                       # number of demand (read+write) MSHR hits
system.cpu.icache.demand_mshr_miss_latency      8334000                       # number of demand (read+write) MSHR miss cycles
system.cpu.icache.demand_mshr_miss_rate      0.000009                       # mshr miss rate for demand accesses
system.cpu.icache.demand_mshr_misses              125                       # number of demand (read+write) MSHR misses
system.cpu.icache.fast_writes                       0                       # number of fast writes performed
system.cpu.icache.mshr_cap_events                   0                       # number of times MSHR cap was activated
system.cpu.icache.no_allocate_misses                0                       # Number of misses that were no-allocate
system.cpu.icache.occ_%::0                   0.184131                       # Average percentage of cache occupancy
system.cpu.icache.occ_blocks::0             94.275212                       # Average occupied blocks per context
system.cpu.icache.overall_accesses           13772557                       # number of overall (read+write) accesses
system.cpu.icache.overall_avg_miss_latency 68830.708661                       # average overall miss latency
system.cpu.icache.overall_avg_mshr_miss_latency        66672                       # average overall mshr miss latency
system.cpu.icache.overall_avg_mshr_uncacheable_latency     no_value                       # average overall mshr uncacheable latency
system.cpu.icache.overall_hits               13772430                       # number of overall hits
system.cpu.icache.overall_miss_latency        8741500                       # number of overall miss cycles
system.cpu.icache.overall_miss_rate          0.000009                       # miss rate for overall accesses
system.cpu.icache.overall_misses                  127                       # number of overall misses
system.cpu.icache.overall_mshr_hits                 1                       # number of overall MSHR hits
system.cpu.icache.overall_mshr_miss_latency      8334000                       # number of overall MSHR miss cycles
system.cpu.icache.overall_mshr_miss_rate     0.000009                       # mshr miss rate for overall accesses
system.cpu.icache.overall_mshr_misses             125                       # number of overall MSHR misses
system.cpu.icache.overall_mshr_uncacheable_latency            0                       # number of overall MSHR uncacheable cycles
system.cpu.icache.overall_mshr_uncacheable_misses            0                       # number of overall MSHR uncacheable misses
system.cpu.icache.prefetch_accuracy          no_value                       # ratio of good prefetches to total prefetches
system.cpu.icache.prefetch_hits                     0                       # number of prefetched blocks that were accessed
system.cpu.icache.replacements                      0                       # number of replacements
system.cpu.icache.sampled_refs                    126                       # Sample count of references to valid blocks.
system.cpu.icache.soft_prefetch_mshr_full            0                       # number of mshr full events for SW prefetching instrutions
system.cpu.icache.tagsinuse                 94.275212                       # Cycle average of tags in use
system.cpu.icache.total_refs                 13772430                       # Total number of references to valid blocks.
system.cpu.icache.warmup_cycle                      0                       # Cycle when the warmup percentage was hit.
system.cpu.icache.writebacks                        0                       # number of writebacks
system.cpu.idle_fraction                            0                       # Percentage of idle cycles
system.cpu.itb.data_accesses                        0                       # DTB accesses
system.cpu.itb.data_acv                             0                       # DTB access violations
system.cpu.itb.data_hits                            0                       # DTB hits
system.cpu.itb.data_misses                          0                       # DTB misses
system.cpu.itb.fetch_accesses                       2                       # ITB accesses
system.cpu.itb.fetch_acv                            0                       # ITB acv
system.cpu.itb.fetch_hits                           2                       # ITB hits
system.cpu.itb.fetch_misses                         0                       # ITB misses
system.cpu.itb.read_accesses                        0                       # DTB read accesses
system.cpu.itb.read_acv                             0                       # DTB read access violations
system.cpu.itb.read_hits                            0                       # DTB read hits
system.cpu.itb.read_misses                          0                       # DTB read misses
system.cpu.itb.write_accesses                       0                       # DTB write accesses
system.cpu.itb.write_acv                            0                       # DTB write access violations
system.cpu.itb.write_hits                           0                       # DTB write hits
system.cpu.itb.write_misses                         0                       # DTB write misses
system.cpu.not_idle_fraction                        1                       # Percentage of non-idle cycles
system.cpu.numCycles                                2                       # number of cpu cycles simulated
system.cpu.num_insts                                2                       # Number of instructions executed
system.cpu.num_refs                                 1                       # Number of memory references
system.cpu.workload.PROG:num_syscalls               0                       # Number of system calls
system.l2.HardPFReq_avg_mshr_miss_latency 83684.728129                       # average HardPFReq mshr miss latency
system.l2.HardPFReq_mshr_miss_latency    116248296908                       # number of HardPFReq MSHR miss cycles
system.l2.HardPFReq_mshr_miss_rate                inf                       # mshr miss rate for HardPFReq accesses
system.l2.HardPFReq_mshr_misses               1389122                       # number of HardPFReq MSHR misses
system.l2.ReadExReq_accesses                    20024                       # number of ReadExReq accesses(hits+misses)
system.l2.ReadExReq_avg_miss_latency     84842.903472                       # average ReadExReq miss latency
system.l2.ReadExReq_avg_mshr_miss_latency 113955.503088                       # average ReadExReq mshr miss latency
system.l2.ReadExReq_hits                        14782                       # number of ReadExReq hits
system.l2.ReadExReq_miss_latency            444746500                       # number of ReadExReq miss cycles
system.l2.ReadExReq_miss_rate                0.261786                       # miss rate for ReadExReq accesses
system.l2.ReadExReq_misses                       5242                       # number of ReadExReq misses
system.l2.ReadExReq_mshr_hits                    2489                       # number of ReadExReq MSHR hits
system.l2.ReadExReq_mshr_miss_latency       313719500                       # number of ReadExReq MSHR miss cycles
system.l2.ReadExReq_mshr_miss_rate           0.137485                       # mshr miss rate for ReadExReq accesses
system.l2.ReadExReq_mshr_misses                  2753                       # number of ReadExReq MSHR misses
system.l2.ReadReq_accesses                    2580173                       # number of ReadReq accesses(hits+misses)
system.l2.ReadReq_avg_miss_latency       171401.587683                       # average ReadReq miss latency
system.l2.ReadReq_avg_mshr_miss_latency  159762.615122                       # average ReadReq mshr miss latency
system.l2.ReadReq_hits                        1415268                       # number of ReadReq hits
system.l2.ReadReq_miss_latency           199666566500                       # number of ReadReq miss cycles
system.l2.ReadReq_miss_rate                  0.451483                       # miss rate for ReadReq accesses
system.l2.ReadReq_misses                      1164905                       # number of ReadReq misses
system.l2.ReadReq_mshr_hits                     38378                       # number of ReadReq MSHR hits
system.l2.ReadReq_mshr_miss_latency      179976580000                       # number of ReadReq MSHR miss cycles
system.l2.ReadReq_mshr_miss_rate             0.436608                       # mshr miss rate for ReadReq accesses
system.l2.ReadReq_mshr_misses                 1126525                       # number of ReadReq MSHR misses
system.l2.UpgradeReq_accesses                  524252                       # number of UpgradeReq accesses(hits+misses)
system.l2.UpgradeReq_avg_miss_latency    139224.513263                       # average UpgradeReq miss latency
system.l2.UpgradeReq_avg_mshr_miss_latency 123985.172259                       # average UpgradeReq mshr miss latency
system.l2.UpgradeReq_miss_latency         72988729527                       # number of UpgradeReq miss cycles
system.l2.UpgradeReq_miss_rate                      1                       # miss rate for UpgradeReq accesses
system.l2.UpgradeReq_misses                    524252                       # number of UpgradeReq misses
system.l2.UpgradeReq_mshr_miss_latency    64999474527                       # number of UpgradeReq MSHR miss cycles
system.l2.UpgradeReq_mshr_miss_rate                 1                       # mshr miss rate for UpgradeReq accesses
system.l2.UpgradeReq_mshr_misses               524252                       # number of UpgradeReq MSHR misses
system.l2.Writeback_accesses                   543830                       # number of Writeback accesses(hits+misses)
system.l2.Writeback_hits                       543830                       # number of Writeback hits
system.l2.avg_blocked_cycles::no_mshrs   13811.986864                       # average number of cycles each access was blocked
system.l2.avg_blocked_cycles::no_targets     no_value                       # average number of cycles each access was blocked
system.l2.avg_refs                           0.766270                       # Average number of references to valid blocks.
system.l2.blocked::no_mshrs                       609                       # number of cycles access was blocked
system.l2.blocked::no_targets                       0                       # number of cycles access was blocked
system.l2.blocked_cycles::no_mshrs            8411500                       # number of cycles access was blocked
system.l2.blocked_cycles::no_targets                0                       # number of cycles access was blocked
system.l2.cache_copies                              0                       # number of cache copies performed
system.l2.demand_accesses                     2600197                       # number of demand (read+write) accesses
system.l2.demand_avg_miss_latency        171013.823904                       # average overall miss latency
system.l2.demand_avg_mshr_miss_latency   159650.944674                       # average overall mshr miss latency
system.l2.demand_hits                         1430050                       # number of demand (read+write) hits
system.l2.demand_miss_latency            200111313000                       # number of demand (read+write) miss cycles
system.l2.demand_miss_rate                   0.450022                       # miss rate for demand accesses
system.l2.demand_misses                       1170147                       # number of demand (read+write) misses
system.l2.demand_mshr_hits                      40867                       # number of demand (read+write) MSHR hits
system.l2.demand_mshr_miss_latency       180290299500                       # number of demand (read+write) MSHR miss cycles
system.l2.demand_mshr_miss_rate              0.434305                       # mshr miss rate for demand accesses
system.l2.demand_mshr_misses                  1129278                       # number of demand (read+write) MSHR misses
system.l2.fast_writes                               0                       # number of fast writes performed
system.l2.mshr_cap_events                           0                       # number of times MSHR cap was activated
system.l2.no_allocate_misses                        0                       # Number of misses that were no-allocate
system.l2.occ_%::0                           0.585822                       # Average percentage of cache occupancy
system.l2.occ_%::1                           0.210262                       # Average percentage of cache occupancy
system.l2.occ_blocks::0                   9598.112081                       # Average occupied blocks per context
system.l2.occ_blocks::1                   3444.924460                       # Average occupied blocks per context
system.l2.overall_accesses                    2600197                       # number of overall (read+write) accesses
system.l2.overall_avg_miss_latency       171013.823904                       # average overall miss latency
system.l2.overall_avg_mshr_miss_latency  117748.807341                       # average overall mshr miss latency
system.l2.overall_avg_mshr_uncacheable_latency     no_value                       # average overall mshr uncacheable latency
system.l2.overall_hits                        1430050                       # number of overall hits
system.l2.overall_miss_latency           200111313000                       # number of overall miss cycles
system.l2.overall_miss_rate                  0.450022                       # miss rate for overall accesses
system.l2.overall_misses                      1170147                       # number of overall misses
system.l2.overall_mshr_hits                     40867                       # number of overall MSHR hits
system.l2.overall_mshr_miss_latency      296538596408                       # number of overall MSHR miss cycles
system.l2.overall_mshr_miss_rate             0.968542                       # mshr miss rate for overall accesses
system.l2.overall_mshr_misses                 2518400                       # number of overall MSHR misses
system.l2.overall_mshr_uncacheable_latency            0                       # number of overall MSHR uncacheable cycles
system.l2.overall_mshr_uncacheable_misses            0                       # number of overall MSHR uncacheable misses
system.l2.prefetch_accuracy                  0.942075                       # ratio of good prefetches to total prefetches
system.l2.prefetch_hits                       1308657                       # number of prefetched blocks that were accessed
system.l2.prefetcher.num_hwpf_already_in_prefetcher      4317814                       # number of hwpf that were already in the prefetch queue
system.l2.prefetcher.num_hwpf_evicted         2509538                       # number of hwpf removed due to no buffer left
system.l2.prefetcher.num_hwpf_identified      9159134                       # number of hwpf identified
system.l2.prefetcher.num_hwpf_issued          1471532                       # number of hwpf issued
system.l2.prefetcher.num_hwpf_removed_MSHR_hit       860239                       # number of hwpf removed because MSHR allocated
system.l2.prefetcher.num_hwpf_span_page             0                       # number of hwpf spanning a virtual page
system.l2.prefetcher.num_hwpf_squashed_from_miss            0                       # number of hwpf that got squashed due to a miss aborting calculation time
system.l2.replacements                        2506956                       # number of replacements
system.l2.sampled_refs                        2517901                       # Sample count of references to valid blocks.
system.l2.soft_prefetch_mshr_full                   0                       # number of mshr full events for SW prefetching instrutions
system.l2.tagsinuse                      13043.036541                       # Cycle average of tags in use
system.l2.total_refs                          1929391                       # Total number of references to valid blocks.
system.l2.warmup_cycle                   501465432500                       # Cycle when the warmup percentage was hit.
system.l2.writebacks                           510055                       # number of writebacks
system.switch_cpus.dtb.data_accesses          2980716                       # DTB accesses
system.switch_cpus.dtb.data_acv                     0                       # DTB access violations
system.switch_cpus.dtb.data_hits              2962770                       # DTB hits
system.switch_cpus.dtb.data_misses              17946                       # DTB misses
system.switch_cpus.dtb.fetch_accesses               0                       # ITB accesses
system.switch_cpus.dtb.fetch_acv                    0                       # ITB acv
system.switch_cpus.dtb.fetch_hits                   0                       # ITB hits
system.switch_cpus.dtb.fetch_misses                 0                       # ITB misses
system.switch_cpus.dtb.read_accesses          2206932                       # DTB read accesses
system.switch_cpus.dtb.read_acv                     0                       # DTB read access violations
system.switch_cpus.dtb.read_hits              2189262                       # DTB read hits
system.switch_cpus.dtb.read_misses              17670                       # DTB read misses
system.switch_cpus.dtb.write_accesses          773784                       # DTB write accesses
system.switch_cpus.dtb.write_acv                    0                       # DTB write access violations
system.switch_cpus.dtb.write_hits              773508                       # DTB write hits
system.switch_cpus.dtb.write_misses               276                       # DTB write misses
system.switch_cpus.idle_fraction                    1                       # Percentage of idle cycles
system.switch_cpus.itb.data_accesses                0                       # DTB accesses
system.switch_cpus.itb.data_acv                     0                       # DTB access violations
system.switch_cpus.itb.data_hits                    0                       # DTB hits
system.switch_cpus.itb.data_misses                  0                       # DTB misses
system.switch_cpus.itb.fetch_accesses        10017952                       # ITB accesses
system.switch_cpus.itb.fetch_acv                    0                       # ITB acv
system.switch_cpus.itb.fetch_hits            10017948                       # ITB hits
system.switch_cpus.itb.fetch_misses                 4                       # ITB misses
system.switch_cpus.itb.read_accesses                0                       # DTB read accesses
system.switch_cpus.itb.read_acv                     0                       # DTB read access violations
system.switch_cpus.itb.read_hits                    0                       # DTB read hits
system.switch_cpus.itb.read_misses                  0                       # DTB read misses
system.switch_cpus.itb.write_accesses               0                       # DTB write accesses
system.switch_cpus.itb.write_acv                    0                       # DTB write access violations
system.switch_cpus.itb.write_hits                   0                       # DTB write hits
system.switch_cpus.itb.write_misses                 0                       # DTB write misses
system.switch_cpus.not_idle_fraction                0                       # Percentage of non-idle cycles
system.switch_cpus.numCycles                120440405                       # number of cpu cycles simulated
system.switch_cpus.num_insts                 10000001                       # Number of instructions executed
system.switch_cpus.num_refs                   3733211                       # Number of memory references
system.switch_cpus_1.BPredUnit.BTBCorrect            0                       # Number of correct BTB predictions (this stat may not work properly.
system.switch_cpus_1.BPredUnit.BTBHits        1433667                       # Number of BTB hits
system.switch_cpus_1.BPredUnit.BTBLookups      1566779                       # Number of BTB lookups
system.switch_cpus_1.BPredUnit.RASInCorrect            1                       # Number of incorrect RAS predictions.
system.switch_cpus_1.BPredUnit.condIncorrect       150108                       # Number of conditional branches incorrect
system.switch_cpus_1.BPredUnit.condPredicted      1622888                       # Number of conditional branches predicted
system.switch_cpus_1.BPredUnit.lookups        1690175                       # Number of BP lookups
system.switch_cpus_1.BPredUnit.usedRAS          25248                       # Number of times the RAS was used to get a target.
system.switch_cpus_1.commit.COM:branches      1112239                       # Number of branches committed
system.switch_cpus_1.commit.COM:bw_lim_events       469003                       # number cycles where commit BW limit reached
system.switch_cpus_1.commit.COM:bw_limited            0                       # number of insts not committed due to BW limits
system.switch_cpus_1.commit.COM:committed_per_cycle::samples     61356219                       # Number of insts commited each cycle
system.switch_cpus_1.commit.COM:committed_per_cycle::mean     0.166006                       # Number of insts commited each cycle
system.switch_cpus_1.commit.COM:committed_per_cycle::stdev     0.882890                       # Number of insts commited each cycle
system.switch_cpus_1.commit.COM:committed_per_cycle::underflows            0      0.00%      0.00% # Number of insts commited each cycle
system.switch_cpus_1.commit.COM:committed_per_cycle::0     57629292     93.93%     93.93% # Number of insts commited each cycle
system.switch_cpus_1.commit.COM:committed_per_cycle::1      1798165      2.93%     96.86% # Number of insts commited each cycle
system.switch_cpus_1.commit.COM:committed_per_cycle::2       696215      1.13%     97.99% # Number of insts commited each cycle
system.switch_cpus_1.commit.COM:committed_per_cycle::3       244913      0.40%     98.39% # Number of insts commited each cycle
system.switch_cpus_1.commit.COM:committed_per_cycle::4       296351      0.48%     98.87% # Number of insts commited each cycle
system.switch_cpus_1.commit.COM:committed_per_cycle::5        56408      0.09%     98.97% # Number of insts commited each cycle
system.switch_cpus_1.commit.COM:committed_per_cycle::6       120408      0.20%     99.16% # Number of insts commited each cycle
system.switch_cpus_1.commit.COM:committed_per_cycle::7        45464      0.07%     99.24% # Number of insts commited each cycle
system.switch_cpus_1.commit.COM:committed_per_cycle::8       469003      0.76%    100.00% # Number of insts commited each cycle
system.switch_cpus_1.commit.COM:committed_per_cycle::overflows            0      0.00%    100.00% # Number of insts commited each cycle
system.switch_cpus_1.commit.COM:committed_per_cycle::min_value            0                       # Number of insts commited each cycle
system.switch_cpus_1.commit.COM:committed_per_cycle::max_value            8                       # Number of insts commited each cycle
system.switch_cpus_1.commit.COM:committed_per_cycle::total     61356219                       # Number of insts commited each cycle
system.switch_cpus_1.commit.COM:count        10185498                       # Number of instructions committed
system.switch_cpus_1.commit.COM:loads         3006543                       # Number of loads committed
system.switch_cpus_1.commit.COM:membars             0                       # Number of memory barriers committed
system.switch_cpus_1.commit.COM:refs          3800350                       # Number of memory references committed
system.switch_cpus_1.commit.COM:swp_count            0                       # Number of s/w prefetches committed
system.switch_cpus_1.commit.branchMispredicts       150099                       # The number of times a branch was mispredicted
system.switch_cpus_1.commit.commitCommittedInsts     10185498                       # The number of committed instructions
system.switch_cpus_1.commit.commitSquashedInsts      8231177                       # The number of squashed insts skipped by commit
system.switch_cpus_1.committedInsts          10000005                       # Number of Instructions Simulated
system.switch_cpus_1.committedInsts_total     10000005                       # Number of Instructions Simulated
system.switch_cpus_1.cpi                     7.816096                       # CPI: Cycles Per Instruction
system.switch_cpus_1.cpi_total               7.816096                       # CPI: Total CPI of All Threads
system.switch_cpus_1.decode.DECODE:BlockedCycles     49075473                       # Number of cycles decode is blocked
system.switch_cpus_1.decode.DECODE:BranchMispred           10                       # Number of times decode detected a branch misprediction
system.switch_cpus_1.decode.DECODE:BranchResolved        41671                       # Number of times decode resolved a branch
system.switch_cpus_1.decode.DECODE:DecodedInsts     27646288                       # Number of instructions handled by decode
system.switch_cpus_1.decode.DECODE:IdleCycles      7707132                       # Number of cycles decode is idle
system.switch_cpus_1.decode.DECODE:RunCycles      4476555                       # Number of cycles decode is running
system.switch_cpus_1.decode.DECODE:SquashCycles      1378303                       # Number of cycles decode is squashing
system.switch_cpus_1.decode.DECODE:SquashedInsts           42                       # Number of squashed instructions handled by decode
system.switch_cpus_1.decode.DECODE:UnblockCycles        97058                       # Number of cycles decode is unblocking
system.switch_cpus_1.dtb.data_accesses        5113517                       # DTB accesses
system.switch_cpus_1.dtb.data_acv                   0                       # DTB access violations
system.switch_cpus_1.dtb.data_hits            4995213                       # DTB hits
system.switch_cpus_1.dtb.data_misses           118304                       # DTB misses
system.switch_cpus_1.dtb.fetch_accesses             0                       # ITB accesses
system.switch_cpus_1.dtb.fetch_acv                  0                       # ITB acv
system.switch_cpus_1.dtb.fetch_hits                 0                       # ITB hits
system.switch_cpus_1.dtb.fetch_misses               0                       # ITB misses
system.switch_cpus_1.dtb.read_accesses        4098122                       # DTB read accesses
system.switch_cpus_1.dtb.read_acv                   0                       # DTB read access violations
system.switch_cpus_1.dtb.read_hits            3981979                       # DTB read hits
system.switch_cpus_1.dtb.read_misses           116143                       # DTB read misses
system.switch_cpus_1.dtb.write_accesses       1015395                       # DTB write accesses
system.switch_cpus_1.dtb.write_acv                  0                       # DTB write access violations
system.switch_cpus_1.dtb.write_hits           1013234                       # DTB write hits
system.switch_cpus_1.dtb.write_misses            2161                       # DTB write misses
system.switch_cpus_1.fetch.Branches           1690175                       # Number of branches that fetch encountered
system.switch_cpus_1.fetch.CacheLines         3754607                       # Number of cache lines fetched
system.switch_cpus_1.fetch.Cycles             8433480                       # Number of cycles fetch has run and was not squashing or blocked
system.switch_cpus_1.fetch.IcacheSquashes       193445                       # Number of outstanding Icache misses that were squashed
system.switch_cpus_1.fetch.Insts             28306315                       # Number of instructions fetch has processed
system.switch_cpus_1.fetch.SquashCycles        767877                       # Number of cycles fetch has spent squashing
system.switch_cpus_1.fetch.branchRate        0.021624                       # Number of branch fetches per cycle
system.switch_cpus_1.fetch.icacheStallCycles      3754607                       # Number of cycles fetch is stalled on an Icache miss
system.switch_cpus_1.fetch.predictedBranches      1458915                       # Number of branches that fetch has predicted taken
system.switch_cpus_1.fetch.rate              0.362154                       # Number of inst fetches per cycle
system.switch_cpus_1.fetch.rateDist::samples     62734522                       # Number of instructions fetched each cycle (Total)
system.switch_cpus_1.fetch.rateDist::mean     0.451208                       # Number of instructions fetched each cycle (Total)
system.switch_cpus_1.fetch.rateDist::stdev     1.715563                       # Number of instructions fetched each cycle (Total)
system.switch_cpus_1.fetch.rateDist::underflows            0      0.00%      0.00% # Number of instructions fetched each cycle (Total)
system.switch_cpus_1.fetch.rateDist::0       58055661     92.54%     92.54% # Number of instructions fetched each cycle (Total)
system.switch_cpus_1.fetch.rateDist::1          81622      0.13%     92.67% # Number of instructions fetched each cycle (Total)
system.switch_cpus_1.fetch.rateDist::2         648250      1.03%     93.71% # Number of instructions fetched each cycle (Total)
system.switch_cpus_1.fetch.rateDist::3          89246      0.14%     93.85% # Number of instructions fetched each cycle (Total)
system.switch_cpus_1.fetch.rateDist::4         731902      1.17%     95.01% # Number of instructions fetched each cycle (Total)
system.switch_cpus_1.fetch.rateDist::5         122734      0.20%     95.21% # Number of instructions fetched each cycle (Total)
system.switch_cpus_1.fetch.rateDist::6         325646      0.52%     95.73% # Number of instructions fetched each cycle (Total)
system.switch_cpus_1.fetch.rateDist::7         270387      0.43%     96.16% # Number of instructions fetched each cycle (Total)
system.switch_cpus_1.fetch.rateDist::8        2409074      3.84%    100.00% # Number of instructions fetched each cycle (Total)
system.switch_cpus_1.fetch.rateDist::overflows            0      0.00%    100.00% # Number of instructions fetched each cycle (Total)
system.switch_cpus_1.fetch.rateDist::min_value            0                       # Number of instructions fetched each cycle (Total)
system.switch_cpus_1.fetch.rateDist::max_value            8                       # Number of instructions fetched each cycle (Total)
system.switch_cpus_1.fetch.rateDist::total     62734522                       # Number of instructions fetched each cycle (Total)
system.switch_cpus_1.idleCycles              15426480                       # Total number of cycles that the CPU has spent unscheduled due to idling
system.switch_cpus_1.iew.EXEC:branches        1205682                       # Number of branches executed
system.switch_cpus_1.iew.EXEC:nop              255538                       # number of nop insts executed
system.switch_cpus_1.iew.EXEC:rate           0.178897                       # Inst execution rate
system.switch_cpus_1.iew.EXEC:refs            6787106                       # number of memory reference insts executed
system.switch_cpus_1.iew.EXEC:stores          1015395                       # Number of stores executed
system.switch_cpus_1.iew.EXEC:swp                   0                       # number of swp insts executed
system.switch_cpus_1.iew.WB:consumers         8235194                       # num instructions consuming a value
system.switch_cpus_1.iew.WB:count            12289591                       # cumulative count of insts written-back
system.switch_cpus_1.iew.WB:fanout           0.801789                       # average fanout of values written-back
system.switch_cpus_1.iew.WB:penalized               0                       # number of instrctions required to write to 'other' IQ
system.switch_cpus_1.iew.WB:penalized_rate            0                       # fraction of instructions written-back that wrote to 'other' IQ
system.switch_cpus_1.iew.WB:producers         6602888                       # num instructions producing a value
system.switch_cpus_1.iew.WB:rate             0.157234                       # insts written-back per cycle
system.switch_cpus_1.iew.WB:sent             12408948                       # cumulative count of insts sent to commit
system.switch_cpus_1.iew.branchMispredicts       150213                       # Number of branch mispredicts detected at execute
system.switch_cpus_1.iew.iewBlockCycles      40036965                       # Number of cycles IEW is blocking
system.switch_cpus_1.iew.iewDispLoadInsts      6582290                       # Number of dispatched load instructions
system.switch_cpus_1.iew.iewDispNonSpecInsts            0                       # Number of dispatched non-speculative instructions
system.switch_cpus_1.iew.iewDispSquashedInsts      2266371                       # Number of squashed instructions skipped by dispatch
system.switch_cpus_1.iew.iewDispStoreInsts      1800081                       # Number of dispatched store instructions
system.switch_cpus_1.iew.iewDispatchedInsts     18441265                       # Number of instructions dispatched to IQ
system.switch_cpus_1.iew.iewExecLoadInsts      5771711                       # Number of load instructions executed
system.switch_cpus_1.iew.iewExecSquashedInsts      1146261                       # Number of squashed instructions skipped in execute
system.switch_cpus_1.iew.iewExecutedInsts     13982747                       # Number of executed instructions
system.switch_cpus_1.iew.iewIQFullEvents        45365                       # Number of times the IQ has become full, causing a stall
system.switch_cpus_1.iew.iewIdleCycles              0                       # Number of cycles IEW is idle
system.switch_cpus_1.iew.iewLSQFullEvents       197000                       # Number of times the LSQ has become full, causing a stall
system.switch_cpus_1.iew.iewSquashCycles      1378303                       # Number of cycles IEW is squashing
system.switch_cpus_1.iew.iewUnblockCycles       634935                       # Number of cycles IEW is unblocking
system.switch_cpus_1.iew.lsq.thread.0.blockedLoads            0                       # Number of blocked loads due to partial load-store forwarding
system.switch_cpus_1.iew.lsq.thread.0.cacheBlocked      1521089                       # Number of times an access to memory failed due to the cache being blocked
system.switch_cpus_1.iew.lsq.thread.0.forwLoads        53626                       # Number of loads that had data forwarded from stores
system.switch_cpus_1.iew.lsq.thread.0.ignoredResponses           52                       # Number of memory responses ignored because the instruction is squashed
system.switch_cpus_1.iew.lsq.thread.0.invAddrLoads            0                       # Number of loads ignored due to an invalid address
system.switch_cpus_1.iew.lsq.thread.0.invAddrSwpfs            0                       # Number of software prefetches ignored due to an invalid address
system.switch_cpus_1.iew.lsq.thread.0.memOrderViolation         8247                       # Number of memory ordering violations
system.switch_cpus_1.iew.lsq.thread.0.rescheduledLoads            0                       # Number of loads that were rescheduled
system.switch_cpus_1.iew.lsq.thread.0.squashedLoads      3575746                       # Number of loads squashed
system.switch_cpus_1.iew.lsq.thread.0.squashedStores      1006274                       # Number of stores squashed
system.switch_cpus_1.iew.memOrderViolationEvents         8247                       # Number of memory order violations
system.switch_cpus_1.iew.predictedNotTakenIncorrect        20579                       # Number of branches that were predicted not taken incorrectly
system.switch_cpus_1.iew.predictedTakenIncorrect       129634                       # Number of branches that were predicted taken incorrectly
system.switch_cpus_1.ipc                     0.127941                       # IPC: Instructions Per Cycle
system.switch_cpus_1.ipc_total               0.127941                       # IPC: Total IPC of All Threads
system.switch_cpus_1.iq.ISSUE:FU_type_0::No_OpClass            0      0.00%      0.00% # Type of FU issued
system.switch_cpus_1.iq.ISSUE:FU_type_0::IntAlu      4929158     32.58%     32.58% # Type of FU issued
system.switch_cpus_1.iq.ISSUE:FU_type_0::IntMult            0      0.00%     32.58% # Type of FU issued
system.switch_cpus_1.iq.ISSUE:FU_type_0::IntDiv            0      0.00%     32.58% # Type of FU issued
system.switch_cpus_1.iq.ISSUE:FU_type_0::FloatAdd      1422592      9.40%     41.98% # Type of FU issued
system.switch_cpus_1.iq.ISSUE:FU_type_0::FloatCmp       180537      1.19%     43.18% # Type of FU issued
system.switch_cpus_1.iq.ISSUE:FU_type_0::FloatCvt        37534      0.25%     43.43% # Type of FU issued
system.switch_cpus_1.iq.ISSUE:FU_type_0::FloatMult      1433923      9.48%     52.90% # Type of FU issued
system.switch_cpus_1.iq.ISSUE:FU_type_0::FloatDiv            9      0.00%     52.90% # Type of FU issued
system.switch_cpus_1.iq.ISSUE:FU_type_0::FloatSqrt           14      0.00%     52.90% # Type of FU issued
system.switch_cpus_1.iq.ISSUE:FU_type_0::MemRead      5958445     39.38%     92.29% # Type of FU issued
system.switch_cpus_1.iq.ISSUE:FU_type_0::MemWrite      1166796      7.71%    100.00% # Type of FU issued
system.switch_cpus_1.iq.ISSUE:FU_type_0::IprAccess            0      0.00%    100.00% # Type of FU issued
system.switch_cpus_1.iq.ISSUE:FU_type_0::InstPrefetch            0      0.00%    100.00% # Type of FU issued
system.switch_cpus_1.iq.ISSUE:FU_type_0::total     15129008                       # Type of FU issued
system.switch_cpus_1.iq.ISSUE:fu_busy_cnt       497075                       # FU busy when requested
system.switch_cpus_1.iq.ISSUE:fu_busy_rate     0.032856                       # FU busy rate (busy events/executed inst)
system.switch_cpus_1.iq.ISSUE:fu_full::No_OpClass            0      0.00%      0.00% # attempts to use FU when none available
system.switch_cpus_1.iq.ISSUE:fu_full::IntAlu           13      0.00%      0.00% # attempts to use FU when none available
system.switch_cpus_1.iq.ISSUE:fu_full::IntMult            0      0.00%      0.00% # attempts to use FU when none available
system.switch_cpus_1.iq.ISSUE:fu_full::IntDiv            0      0.00%      0.00% # attempts to use FU when none available
system.switch_cpus_1.iq.ISSUE:fu_full::FloatAdd          465      0.09%      0.10% # attempts to use FU when none available
system.switch_cpus_1.iq.ISSUE:fu_full::FloatCmp         1807      0.36%      0.46% # attempts to use FU when none available
system.switch_cpus_1.iq.ISSUE:fu_full::FloatCvt            0      0.00%      0.46% # attempts to use FU when none available
system.switch_cpus_1.iq.ISSUE:fu_full::FloatMult       149782     30.13%     30.59% # attempts to use FU when none available
system.switch_cpus_1.iq.ISSUE:fu_full::FloatDiv            0      0.00%     30.59% # attempts to use FU when none available
system.switch_cpus_1.iq.ISSUE:fu_full::FloatSqrt            0      0.00%     30.59% # attempts to use FU when none available
system.switch_cpus_1.iq.ISSUE:fu_full::MemRead       261608     52.63%     83.22% # attempts to use FU when none available
system.switch_cpus_1.iq.ISSUE:fu_full::MemWrite        83400     16.78%    100.00% # attempts to use FU when none available
system.switch_cpus_1.iq.ISSUE:fu_full::IprAccess            0      0.00%    100.00% # attempts to use FU when none available
system.switch_cpus_1.iq.ISSUE:fu_full::InstPrefetch            0      0.00%    100.00% # attempts to use FU when none available
system.switch_cpus_1.iq.ISSUE:issued_per_cycle::samples     62734522                       # Number of insts issued each cycle
system.switch_cpus_1.iq.ISSUE:issued_per_cycle::mean     0.241159                       # Number of insts issued each cycle
system.switch_cpus_1.iq.ISSUE:issued_per_cycle::stdev     0.709509                       # Number of insts issued each cycle
system.switch_cpus_1.iq.ISSUE:issued_per_cycle::underflows            0      0.00%      0.00% # Number of insts issued each cycle
system.switch_cpus_1.iq.ISSUE:issued_per_cycle::0     53073757     84.60%     84.60% # Number of insts issued each cycle
system.switch_cpus_1.iq.ISSUE:issued_per_cycle::1      6822893     10.88%     95.48% # Number of insts issued each cycle
system.switch_cpus_1.iq.ISSUE:issued_per_cycle::2      1533677      2.44%     97.92% # Number of insts issued each cycle
system.switch_cpus_1.iq.ISSUE:issued_per_cycle::3       438841      0.70%     98.62% # Number of insts issued each cycle
system.switch_cpus_1.iq.ISSUE:issued_per_cycle::4       541045      0.86%     99.48% # Number of insts issued each cycle
system.switch_cpus_1.iq.ISSUE:issued_per_cycle::5       211130      0.34%     99.82% # Number of insts issued each cycle
system.switch_cpus_1.iq.ISSUE:issued_per_cycle::6        94519      0.15%     99.97% # Number of insts issued each cycle
system.switch_cpus_1.iq.ISSUE:issued_per_cycle::7        13986      0.02%     99.99% # Number of insts issued each cycle
system.switch_cpus_1.iq.ISSUE:issued_per_cycle::8         4674      0.01%    100.00% # Number of insts issued each cycle
system.switch_cpus_1.iq.ISSUE:issued_per_cycle::overflows            0      0.00%    100.00% # Number of insts issued each cycle
system.switch_cpus_1.iq.ISSUE:issued_per_cycle::min_value            0                       # Number of insts issued each cycle
system.switch_cpus_1.iq.ISSUE:issued_per_cycle::max_value            8                       # Number of insts issued each cycle
system.switch_cpus_1.iq.ISSUE:issued_per_cycle::total     62734522                       # Number of insts issued each cycle
system.switch_cpus_1.iq.ISSUE:rate           0.193562                       # Inst issue rate
system.switch_cpus_1.iq.iqInstsAdded         18185727                       # Number of instructions added to the IQ (excludes non-spec)
system.switch_cpus_1.iq.iqInstsIssued        15129008                       # Number of instructions issued
system.switch_cpus_1.iq.iqSquashedInstsExamined      8150539                       # Number of squashed instructions iterated over during squash; mainly for profiling
system.switch_cpus_1.iq.iqSquashedInstsIssued       359467                       # Number of squashed instructions issued
system.switch_cpus_1.iq.iqSquashedOperandsExamined      7695432                       # Number of squashed operands that are examined and possibly removed from graph
system.switch_cpus_1.itb.data_accesses              0                       # DTB accesses
system.switch_cpus_1.itb.data_acv                   0                       # DTB access violations
system.switch_cpus_1.itb.data_hits                  0                       # DTB hits
system.switch_cpus_1.itb.data_misses                0                       # DTB misses
system.switch_cpus_1.itb.fetch_accesses       3754619                       # ITB accesses
system.switch_cpus_1.itb.fetch_acv                  0                       # ITB acv
system.switch_cpus_1.itb.fetch_hits           3754607                       # ITB hits
system.switch_cpus_1.itb.fetch_misses              12                       # ITB misses
system.switch_cpus_1.itb.read_accesses              0                       # DTB read accesses
system.switch_cpus_1.itb.read_acv                   0                       # DTB read access violations
system.switch_cpus_1.itb.read_hits                  0                       # DTB read hits
system.switch_cpus_1.itb.read_misses                0                       # DTB read misses
system.switch_cpus_1.itb.write_accesses             0                       # DTB write accesses
system.switch_cpus_1.itb.write_acv                  0                       # DTB write access violations
system.switch_cpus_1.itb.write_hits                 0                       # DTB write hits
system.switch_cpus_1.itb.write_misses               0                       # DTB write misses
system.switch_cpus_1.memDep0.conflictingLoads       819563                       # Number of conflicting loads.
system.switch_cpus_1.memDep0.conflictingStores       269366                       # Number of conflicting stores.
system.switch_cpus_1.memDep0.insertedLoads      6582290                       # Number of loads inserted to the mem dependence unit.
system.switch_cpus_1.memDep0.insertedStores      1800081                       # Number of stores inserted to the mem dependence unit.
system.switch_cpus_1.numCycles               78161002                       # number of cpu cycles simulated
system.switch_cpus_1.rename.RENAME:BlockCycles     46221237                       # Number of cycles rename is blocking
system.switch_cpus_1.rename.RENAME:CommittedMaps      7339942                       # Number of HB maps that are committed
system.switch_cpus_1.rename.RENAME:IQFullEvents       135728                       # Number of times rename has blocked due to IQ full
system.switch_cpus_1.rename.RENAME:IdleCycles      8349223                       # Number of cycles rename is idle
system.switch_cpus_1.rename.RENAME:LSQFullEvents      2643105                       # Number of times rename has blocked due to LSQ full
system.switch_cpus_1.rename.RENAME:ROBFullEvents        66523                       # Number of times rename has blocked due to ROB full
system.switch_cpus_1.rename.RENAME:RenameLookups     37843818                       # Number of register rename lookups that rename has made
system.switch_cpus_1.rename.RENAME:RenamedInsts     25165338                       # Number of instructions processed by rename
system.switch_cpus_1.rename.RENAME:RenamedOperands     17047650                       # Number of destination operands rename has renamed
system.switch_cpus_1.rename.RENAME:RunCycles      3976056                       # Number of cycles rename is running
system.switch_cpus_1.rename.RENAME:SquashCycles      1378303                       # Number of cycles rename is squashing
system.switch_cpus_1.rename.RENAME:UnblockCycles      2809702                       # Number of cycles rename is unblocking
system.switch_cpus_1.rename.RENAME:UndoneMaps      9707690                       # Number of HB maps that are undone due to squashing
system.switch_cpus_1.rename.RENAME:serializeStallCycles            0                       # count of cycles rename stalled for serializing inst
system.switch_cpus_1.rename.RENAME:serializingInsts            0                       # count of serializing insts renamed
system.switch_cpus_1.rename.RENAME:skidInsts      5029060                       # count of insts added to the skid buffer
system.switch_cpus_1.rename.RENAME:tempSerializingInsts            0                       # count of temporary serializing insts renamed
system.switch_cpus_1.timesIdled                346928                       # Number of times that the entire CPU went into an idle state and unscheduled itself

---------- End Simulation Statistics   ----------
