
---------- Begin Simulation Statistics ----------
host_inst_rate                                 119212                       # Simulator instruction rate (inst/s)
host_mem_usage                                 333784                       # Number of bytes of host memory used
host_seconds                                   167.77                       # Real time elapsed on the host
host_tick_rate                             1671941781                       # Simulator tick rate (ticks/s)
sim_freq                                 1000000000000                       # Frequency of simulated ticks
sim_insts                                    20000003                       # Number of instructions simulated
sim_seconds                                  0.280500                       # Number of seconds simulated
sim_ticks                                280499571000                       # Number of ticks simulated
system.cpu.dcache.ReadReq_accesses            5607581                       # number of ReadReq accesses(hits+misses)
system.cpu.dcache.ReadReq_avg_miss_latency 103231.693362                       # average ReadReq miss latency
system.cpu.dcache.ReadReq_avg_mshr_miss_latency 99958.860882                       # average ReadReq mshr miss latency
system.cpu.dcache.ReadReq_hits                2082398                       # number of ReadReq hits
system.cpu.dcache.ReadReq_miss_latency   363910610500                       # number of ReadReq miss cycles
system.cpu.dcache.ReadReq_miss_rate          0.628646                       # miss rate for ReadReq accesses
system.cpu.dcache.ReadReq_misses              3525183                       # number of ReadReq misses
system.cpu.dcache.ReadReq_mshr_hits              4179                       # number of ReadReq MSHR hits
system.cpu.dcache.ReadReq_mshr_miss_latency 351955549000                       # number of ReadReq MSHR miss cycles
system.cpu.dcache.ReadReq_mshr_miss_rate     0.627901                       # mshr miss rate for ReadReq accesses
system.cpu.dcache.ReadReq_mshr_misses         3521004                       # number of ReadReq MSHR misses
system.cpu.dcache.WriteReq_accesses            293301                       # number of WriteReq accesses(hits+misses)
system.cpu.dcache.WriteReq_avg_miss_latency 84780.418476                       # average WriteReq miss latency
system.cpu.dcache.WriteReq_avg_mshr_miss_latency 86217.985318                       # average WriteReq mshr miss latency
system.cpu.dcache.WriteReq_hits                285518                       # number of WriteReq hits
system.cpu.dcache.WriteReq_miss_latency     659845997                       # number of WriteReq miss cycles
system.cpu.dcache.WriteReq_miss_rate         0.026536                       # miss rate for WriteReq accesses
system.cpu.dcache.WriteReq_misses                7783                       # number of WriteReq misses
system.cpu.dcache.WriteReq_mshr_hits             2879                       # number of WriteReq MSHR hits
system.cpu.dcache.WriteReq_mshr_miss_latency    422813000                       # number of WriteReq MSHR miss cycles
system.cpu.dcache.WriteReq_mshr_miss_rate     0.016720                       # mshr miss rate for WriteReq accesses
system.cpu.dcache.WriteReq_mshr_misses           4904                       # number of WriteReq MSHR misses
system.cpu.dcache.avg_blocked_cycles::no_mshrs         9250                       # average number of cycles each access was blocked
system.cpu.dcache.avg_blocked_cycles::no_targets 68937.867850                       # average number of cycles each access was blocked
system.cpu.dcache.avg_refs                   0.672079                       # Average number of references to valid blocks.
system.cpu.dcache.blocked::no_mshrs                 6                       # number of cycles access was blocked
system.cpu.dcache.blocked::no_targets             507                       # number of cycles access was blocked
system.cpu.dcache.blocked_cycles::no_mshrs        55500                       # number of cycles access was blocked
system.cpu.dcache.blocked_cycles::no_targets     34951499                       # number of cycles access was blocked
system.cpu.dcache.cache_copies                      0                       # number of cache copies performed
system.cpu.dcache.demand_accesses             5900882                       # number of demand (read+write) accesses
system.cpu.dcache.demand_avg_miss_latency 103191.045851                       # average overall miss latency
system.cpu.dcache.demand_avg_mshr_miss_latency 99939.749421                       # average overall mshr miss latency
system.cpu.dcache.demand_hits                 2367916                       # number of demand (read+write) hits
system.cpu.dcache.demand_miss_latency    364570456497                       # number of demand (read+write) miss cycles
system.cpu.dcache.demand_miss_rate           0.598718                       # miss rate for demand accesses
system.cpu.dcache.demand_misses               3532966                       # number of demand (read+write) misses
system.cpu.dcache.demand_mshr_hits               7058                       # number of demand (read+write) MSHR hits
system.cpu.dcache.demand_mshr_miss_latency 352378362000                       # number of demand (read+write) MSHR miss cycles
system.cpu.dcache.demand_mshr_miss_rate      0.597522                       # mshr miss rate for demand accesses
system.cpu.dcache.demand_mshr_misses          3525908                       # number of demand (read+write) MSHR misses
system.cpu.dcache.fast_writes                       0                       # number of fast writes performed
system.cpu.dcache.mshr_cap_events                   0                       # number of times MSHR cap was activated
system.cpu.dcache.no_allocate_misses                0                       # Number of misses that were no-allocate
system.cpu.dcache.occ_%::0                   0.613207                       # Average percentage of cache occupancy
system.cpu.dcache.occ_blocks::0            627.923548                       # Average occupied blocks per context
system.cpu.dcache.overall_accesses            5900882                       # number of overall (read+write) accesses
system.cpu.dcache.overall_avg_miss_latency 103191.045851                       # average overall miss latency
system.cpu.dcache.overall_avg_mshr_miss_latency 99939.749421                       # average overall mshr miss latency
system.cpu.dcache.overall_avg_mshr_uncacheable_latency     no_value                       # average overall mshr uncacheable latency
system.cpu.dcache.overall_hits                2367916                       # number of overall hits
system.cpu.dcache.overall_miss_latency   364570456497                       # number of overall miss cycles
system.cpu.dcache.overall_miss_rate          0.598718                       # miss rate for overall accesses
system.cpu.dcache.overall_misses              3532966                       # number of overall misses
system.cpu.dcache.overall_mshr_hits              7058                       # number of overall MSHR hits
system.cpu.dcache.overall_mshr_miss_latency 352378362000                       # number of overall MSHR miss cycles
system.cpu.dcache.overall_mshr_miss_rate     0.597522                       # mshr miss rate for overall accesses
system.cpu.dcache.overall_mshr_misses         3525908                       # number of overall MSHR misses
system.cpu.dcache.overall_mshr_uncacheable_latency            0                       # number of overall MSHR uncacheable cycles
system.cpu.dcache.overall_mshr_uncacheable_misses            0                       # number of overall MSHR uncacheable misses
system.cpu.dcache.prefetch_accuracy          no_value                       # ratio of good prefetches to total prefetches
system.cpu.dcache.prefetch_hits                     0                       # number of prefetched blocks that were accessed
system.cpu.dcache.replacements                3524201                       # number of replacements
system.cpu.dcache.sampled_refs                3525052                       # Sample count of references to valid blocks.
system.cpu.dcache.soft_prefetch_mshr_full            0                       # number of mshr full events for SW prefetching instrutions
system.cpu.dcache.tagsinuse                627.923548                       # Cycle average of tags in use
system.cpu.dcache.total_refs                  2369112                       # Total number of references to valid blocks.
system.cpu.dcache.warmup_cycle                      0                       # Cycle when the warmup percentage was hit.
system.cpu.dcache.writebacks                     4506                       # number of writebacks
system.cpu.dtb.data_accesses                        0                       # DTB accesses
system.cpu.dtb.data_acv                             0                       # DTB access violations
system.cpu.dtb.data_hits                            0                       # DTB hits
system.cpu.dtb.data_misses                          0                       # DTB misses
system.cpu.dtb.fetch_accesses                       0                       # ITB accesses
system.cpu.dtb.fetch_acv                            0                       # ITB acv
system.cpu.dtb.fetch_hits                           0                       # ITB hits
system.cpu.dtb.fetch_misses                         0                       # ITB misses
system.cpu.dtb.read_accesses                        0                       # DTB read accesses
system.cpu.dtb.read_acv                             0                       # DTB read access violations
system.cpu.dtb.read_hits                            0                       # DTB read hits
system.cpu.dtb.read_misses                          0                       # DTB read misses
system.cpu.dtb.write_accesses                       0                       # DTB write accesses
system.cpu.dtb.write_acv                            0                       # DTB write access violations
system.cpu.dtb.write_hits                           0                       # DTB write hits
system.cpu.dtb.write_misses                         0                       # DTB write misses
system.cpu.icache.ReadReq_accesses           13504306                       # number of ReadReq accesses(hits+misses)
system.cpu.icache.ReadReq_avg_miss_latency 32668.515824                       # average ReadReq miss latency
system.cpu.icache.ReadReq_avg_mshr_miss_latency 28730.359907                       # average ReadReq mshr miss latency
system.cpu.icache.ReadReq_hits               13498808                       # number of ReadReq hits
system.cpu.icache.ReadReq_miss_latency      179611500                       # number of ReadReq miss cycles
system.cpu.icache.ReadReq_miss_rate          0.000407                       # miss rate for ReadReq accesses
system.cpu.icache.ReadReq_misses                 5498                       # number of ReadReq misses
system.cpu.icache.ReadReq_mshr_hits               329                       # number of ReadReq MSHR hits
system.cpu.icache.ReadReq_mshr_miss_latency    148478500                       # number of ReadReq MSHR miss cycles
system.cpu.icache.ReadReq_mshr_miss_rate     0.000383                       # mshr miss rate for ReadReq accesses
system.cpu.icache.ReadReq_mshr_misses            5168                       # number of ReadReq MSHR misses
system.cpu.icache.avg_blocked_cycles::no_mshrs     no_value                       # average number of cycles each access was blocked
system.cpu.icache.avg_blocked_cycles::no_targets     no_value                       # average number of cycles each access was blocked
system.cpu.icache.avg_refs                2611.493132                       # Average number of references to valid blocks.
system.cpu.icache.blocked::no_mshrs                 0                       # number of cycles access was blocked
system.cpu.icache.blocked::no_targets               0                       # number of cycles access was blocked
system.cpu.icache.blocked_cycles::no_mshrs            0                       # number of cycles access was blocked
system.cpu.icache.blocked_cycles::no_targets            0                       # number of cycles access was blocked
system.cpu.icache.cache_copies                      0                       # number of cache copies performed
system.cpu.icache.demand_accesses            13504306                       # number of demand (read+write) accesses
system.cpu.icache.demand_avg_miss_latency 32668.515824                       # average overall miss latency
system.cpu.icache.demand_avg_mshr_miss_latency 28730.359907                       # average overall mshr miss latency
system.cpu.icache.demand_hits                13498808                       # number of demand (read+write) hits
system.cpu.icache.demand_miss_latency       179611500                       # number of demand (read+write) miss cycles
system.cpu.icache.demand_miss_rate           0.000407                       # miss rate for demand accesses
system.cpu.icache.demand_misses                  5498                       # number of demand (read+write) misses
system.cpu.icache.demand_mshr_hits                329                       # number of demand (read+write) MSHR hits
system.cpu.icache.demand_mshr_miss_latency    148478500                       # number of demand (read+write) MSHR miss cycles
system.cpu.icache.demand_mshr_miss_rate      0.000383                       # mshr miss rate for demand accesses
system.cpu.icache.demand_mshr_misses             5168                       # number of demand (read+write) MSHR misses
system.cpu.icache.fast_writes                       0                       # number of fast writes performed
system.cpu.icache.mshr_cap_events                   0                       # number of times MSHR cap was activated
system.cpu.icache.no_allocate_misses                0                       # Number of misses that were no-allocate
system.cpu.icache.occ_%::0                   0.366660                       # Average percentage of cache occupancy
system.cpu.icache.occ_blocks::0            187.730093                       # Average occupied blocks per context
system.cpu.icache.overall_accesses           13504306                       # number of overall (read+write) accesses
system.cpu.icache.overall_avg_miss_latency 32668.515824                       # average overall miss latency
system.cpu.icache.overall_avg_mshr_miss_latency 28730.359907                       # average overall mshr miss latency
system.cpu.icache.overall_avg_mshr_uncacheable_latency     no_value                       # average overall mshr uncacheable latency
system.cpu.icache.overall_hits               13498808                       # number of overall hits
system.cpu.icache.overall_miss_latency      179611500                       # number of overall miss cycles
system.cpu.icache.overall_miss_rate          0.000407                       # miss rate for overall accesses
system.cpu.icache.overall_misses                 5498                       # number of overall misses
system.cpu.icache.overall_mshr_hits               329                       # number of overall MSHR hits
system.cpu.icache.overall_mshr_miss_latency    148478500                       # number of overall MSHR miss cycles
system.cpu.icache.overall_mshr_miss_rate     0.000383                       # mshr miss rate for overall accesses
system.cpu.icache.overall_mshr_misses            5168                       # number of overall MSHR misses
system.cpu.icache.overall_mshr_uncacheable_latency            0                       # number of overall MSHR uncacheable cycles
system.cpu.icache.overall_mshr_uncacheable_misses            0                       # number of overall MSHR uncacheable misses
system.cpu.icache.prefetch_accuracy          no_value                       # ratio of good prefetches to total prefetches
system.cpu.icache.prefetch_hits                     0                       # number of prefetched blocks that were accessed
system.cpu.icache.replacements                   4957                       # number of replacements
system.cpu.icache.sampled_refs                   5169                       # Sample count of references to valid blocks.
system.cpu.icache.soft_prefetch_mshr_full            0                       # number of mshr full events for SW prefetching instrutions
system.cpu.icache.tagsinuse                187.730093                       # Cycle average of tags in use
system.cpu.icache.total_refs                 13498808                       # Total number of references to valid blocks.
system.cpu.icache.warmup_cycle                      0                       # Cycle when the warmup percentage was hit.
system.cpu.icache.writebacks                        0                       # number of writebacks
system.cpu.idle_fraction                            0                       # Percentage of idle cycles
system.cpu.itb.data_accesses                        0                       # DTB accesses
system.cpu.itb.data_acv                             0                       # DTB access violations
system.cpu.itb.data_hits                            0                       # DTB hits
system.cpu.itb.data_misses                          0                       # DTB misses
system.cpu.itb.fetch_accesses                       2                       # ITB accesses
system.cpu.itb.fetch_acv                            0                       # ITB acv
system.cpu.itb.fetch_hits                           2                       # ITB hits
system.cpu.itb.fetch_misses                         0                       # ITB misses
system.cpu.itb.read_accesses                        0                       # DTB read accesses
system.cpu.itb.read_acv                             0                       # DTB read access violations
system.cpu.itb.read_hits                            0                       # DTB read hits
system.cpu.itb.read_misses                          0                       # DTB read misses
system.cpu.itb.write_accesses                       0                       # DTB write accesses
system.cpu.itb.write_acv                            0                       # DTB write access violations
system.cpu.itb.write_hits                           0                       # DTB write hits
system.cpu.itb.write_misses                         0                       # DTB write misses
system.cpu.not_idle_fraction                        1                       # Percentage of non-idle cycles
system.cpu.numCycles                                2                       # number of cpu cycles simulated
system.cpu.num_insts                                2                       # Number of instructions executed
system.cpu.num_refs                                 0                       # Number of memory references
system.cpu.workload.PROG:num_syscalls               3                       # Number of system calls
system.l2.HardPFReq_avg_mshr_miss_latency 61085.040380                       # average HardPFReq mshr miss latency
system.l2.HardPFReq_mshr_miss_latency    323767329145                       # number of HardPFReq MSHR miss cycles
system.l2.HardPFReq_mshr_miss_rate                inf                       # mshr miss rate for HardPFReq accesses
system.l2.HardPFReq_mshr_misses               5300272                       # number of HardPFReq MSHR misses
system.l2.ReadExReq_accesses                     4049                       # number of ReadExReq accesses(hits+misses)
system.l2.ReadExReq_avg_miss_latency     83110.978836                       # average ReadExReq miss latency
system.l2.ReadExReq_avg_mshr_miss_latency 67970.010616                       # average ReadExReq mshr miss latency
system.l2.ReadExReq_hits                          269                       # number of ReadExReq hits
system.l2.ReadExReq_miss_latency            314159500                       # number of ReadExReq miss cycles
system.l2.ReadExReq_miss_rate                0.933564                       # miss rate for ReadExReq accesses
system.l2.ReadExReq_misses                       3780                       # number of ReadExReq misses
system.l2.ReadExReq_mshr_hits                      12                       # number of ReadExReq MSHR hits
system.l2.ReadExReq_mshr_miss_latency       256111000                       # number of ReadExReq MSHR miss cycles
system.l2.ReadExReq_mshr_miss_rate           0.930600                       # mshr miss rate for ReadExReq accesses
system.l2.ReadExReq_mshr_misses                  3768                       # number of ReadExReq MSHR misses
system.l2.ReadReq_accesses                    3526173                       # number of ReadReq accesses(hits+misses)
system.l2.ReadReq_avg_miss_latency       98658.230003                       # average ReadReq miss latency
system.l2.ReadReq_avg_mshr_miss_latency  83670.480902                       # average ReadReq mshr miss latency
system.l2.ReadReq_hits                           4935                       # number of ReadReq hits
system.l2.ReadReq_miss_latency           347399108500                       # number of ReadReq miss cycles
system.l2.ReadReq_miss_rate                  0.998600                       # miss rate for ReadReq accesses
system.l2.ReadReq_misses                      3521238                       # number of ReadReq misses
system.l2.ReadReq_mshr_hits                       916                       # number of ReadReq MSHR hits
system.l2.ReadReq_mshr_miss_latency      294546951000                       # number of ReadReq MSHR miss cycles
system.l2.ReadReq_mshr_miss_rate             0.998340                       # mshr miss rate for ReadReq accesses
system.l2.ReadReq_mshr_misses                 3520321                       # number of ReadReq MSHR misses
system.l2.UpgradeReq_accesses                     912                       # number of UpgradeReq accesses(hits+misses)
system.l2.UpgradeReq_avg_miss_latency    103312.500000                       # average UpgradeReq miss latency
system.l2.UpgradeReq_avg_mshr_miss_latency 88188.048246                       # average UpgradeReq mshr miss latency
system.l2.UpgradeReq_miss_latency            94221000                       # number of UpgradeReq miss cycles
system.l2.UpgradeReq_miss_rate                      1                       # miss rate for UpgradeReq accesses
system.l2.UpgradeReq_misses                       912                       # number of UpgradeReq misses
system.l2.UpgradeReq_mshr_miss_latency       80427500                       # number of UpgradeReq MSHR miss cycles
system.l2.UpgradeReq_mshr_miss_rate                 1                       # mshr miss rate for UpgradeReq accesses
system.l2.UpgradeReq_mshr_misses                  912                       # number of UpgradeReq MSHR misses
system.l2.Writeback_accesses                     4506                       # number of Writeback accesses(hits+misses)
system.l2.Writeback_hits                         4506                       # number of Writeback hits
system.l2.avg_blocked_cycles::no_mshrs       no_value                       # average number of cycles each access was blocked
system.l2.avg_blocked_cycles::no_targets     no_value                       # average number of cycles each access was blocked
system.l2.avg_refs                           0.000789                       # Average number of references to valid blocks.
system.l2.blocked::no_mshrs                         0                       # number of cycles access was blocked
system.l2.blocked::no_targets                       0                       # number of cycles access was blocked
system.l2.blocked_cycles::no_mshrs                  0                       # number of cycles access was blocked
system.l2.blocked_cycles::no_targets                0                       # number of cycles access was blocked
system.l2.cache_copies                              0                       # number of cache copies performed
system.l2.demand_accesses                     3530222                       # number of demand (read+write) accesses
system.l2.demand_avg_miss_latency        98641.558142                       # average overall miss latency
system.l2.demand_avg_mshr_miss_latency   83653.693763                       # average overall mshr miss latency
system.l2.demand_hits                            5204                       # number of demand (read+write) hits
system.l2.demand_miss_latency            347713268000                       # number of demand (read+write) miss cycles
system.l2.demand_miss_rate                   0.998526                       # miss rate for demand accesses
system.l2.demand_misses                       3525018                       # number of demand (read+write) misses
system.l2.demand_mshr_hits                        928                       # number of demand (read+write) MSHR hits
system.l2.demand_mshr_miss_latency       294803062000                       # number of demand (read+write) MSHR miss cycles
system.l2.demand_mshr_miss_rate              0.998263                       # mshr miss rate for demand accesses
system.l2.demand_mshr_misses                  3524089                       # number of demand (read+write) MSHR misses
system.l2.fast_writes                               0                       # number of fast writes performed
system.l2.mshr_cap_events                           0                       # number of times MSHR cap was activated
system.l2.no_allocate_misses                        0                       # Number of misses that were no-allocate
system.l2.occ_%::0                           0.640876                       # Average percentage of cache occupancy
system.l2.occ_%::1                           0.000341                       # Average percentage of cache occupancy
system.l2.occ_blocks::0                  10500.105385                       # Average occupied blocks per context
system.l2.occ_blocks::1                      5.585507                       # Average occupied blocks per context
system.l2.overall_accesses                    3530222                       # number of overall (read+write) accesses
system.l2.overall_avg_miss_latency       98641.558142                       # average overall miss latency
system.l2.overall_avg_mshr_miss_latency  70098.037823                       # average overall mshr miss latency
system.l2.overall_avg_mshr_uncacheable_latency     no_value                       # average overall mshr uncacheable latency
system.l2.overall_hits                           5204                       # number of overall hits
system.l2.overall_miss_latency           347713268000                       # number of overall miss cycles
system.l2.overall_miss_rate                  0.998526                       # miss rate for overall accesses
system.l2.overall_misses                      3525018                       # number of overall misses
system.l2.overall_mshr_hits                       928                       # number of overall MSHR hits
system.l2.overall_mshr_miss_latency      618570391145                       # number of overall MSHR miss cycles
system.l2.overall_mshr_miss_rate             2.499662                       # mshr miss rate for overall accesses
system.l2.overall_mshr_misses                 8824361                       # number of overall MSHR misses
system.l2.overall_mshr_uncacheable_latency            0                       # number of overall MSHR uncacheable cycles
system.l2.overall_mshr_uncacheable_misses            0                       # number of overall MSHR uncacheable misses
system.l2.prefetch_accuracy                  0.000564                       # ratio of good prefetches to total prefetches
system.l2.prefetch_hits                          2989                       # number of prefetched blocks that were accessed
system.l2.prefetcher.num_hwpf_already_in_prefetcher      3520742                       # number of hwpf that were already in the prefetch queue
system.l2.prefetcher.num_hwpf_evicted               0                       # number of hwpf removed due to no buffer left
system.l2.prefetcher.num_hwpf_identified     10582494                       # number of hwpf identified
system.l2.prefetcher.num_hwpf_issued          5303743                       # number of hwpf issued
system.l2.prefetcher.num_hwpf_removed_MSHR_hit      1758006                       # number of hwpf removed because MSHR allocated
system.l2.prefetcher.num_hwpf_span_page             0                       # number of hwpf spanning a virtual page
system.l2.prefetcher.num_hwpf_squashed_from_miss            0                       # number of hwpf that got squashed due to a miss aborting calculation time
system.l2.replacements                        8812304                       # number of replacements
system.l2.sampled_refs                        8822915                       # Sample count of references to valid blocks.
system.l2.soft_prefetch_mshr_full                   0                       # number of mshr full events for SW prefetching instrutions
system.l2.tagsinuse                      10505.690892                       # Cycle average of tags in use
system.l2.total_refs                             6957                       # Total number of references to valid blocks.
system.l2.warmup_cycle                              0                       # Cycle when the warmup percentage was hit.
system.l2.writebacks                             4493                       # number of writebacks
system.switch_cpus.dtb.data_accesses          2832022                       # DTB accesses
system.switch_cpus.dtb.data_acv                     0                       # DTB access violations
system.switch_cpus.dtb.data_hits              2558233                       # DTB hits
system.switch_cpus.dtb.data_misses             273789                       # DTB misses
system.switch_cpus.dtb.fetch_accesses               0                       # ITB accesses
system.switch_cpus.dtb.fetch_acv                    0                       # ITB acv
system.switch_cpus.dtb.fetch_hits                   0                       # ITB hits
system.switch_cpus.dtb.fetch_misses                 0                       # ITB misses
system.switch_cpus.dtb.read_accesses          2682476                       # DTB read accesses
system.switch_cpus.dtb.read_acv                     0                       # DTB read access violations
system.switch_cpus.dtb.read_hits              2409028                       # DTB read hits
system.switch_cpus.dtb.read_misses             273448                       # DTB read misses
system.switch_cpus.dtb.write_accesses          149546                       # DTB write accesses
system.switch_cpus.dtb.write_acv                    0                       # DTB write access violations
system.switch_cpus.dtb.write_hits              149205                       # DTB write hits
system.switch_cpus.dtb.write_misses               341                       # DTB write misses
system.switch_cpus.idle_fraction                    1                       # Percentage of idle cycles
system.switch_cpus.itb.data_accesses                0                       # DTB accesses
system.switch_cpus.itb.data_acv                     0                       # DTB access violations
system.switch_cpus.itb.data_hits                    0                       # DTB hits
system.switch_cpus.itb.data_misses                  0                       # DTB misses
system.switch_cpus.itb.fetch_accesses        10273803                       # ITB accesses
system.switch_cpus.itb.fetch_acv                    0                       # ITB acv
system.switch_cpus.itb.fetch_hits            10273790                       # ITB hits
system.switch_cpus.itb.fetch_misses                13                       # ITB misses
system.switch_cpus.itb.read_accesses                0                       # DTB read accesses
system.switch_cpus.itb.read_acv                     0                       # DTB read access violations
system.switch_cpus.itb.read_hits                    0                       # DTB read hits
system.switch_cpus.itb.read_misses                  0                       # DTB read misses
system.switch_cpus.itb.write_accesses               0                       # DTB write accesses
system.switch_cpus.itb.write_acv                    0                       # DTB write access violations
system.switch_cpus.itb.write_hits                   0                       # DTB write hits
system.switch_cpus.itb.write_misses                 0                       # DTB write misses
system.switch_cpus.not_idle_fraction                0                       # Percentage of non-idle cycles
system.switch_cpus.numCycles                302436506                       # number of cpu cycles simulated
system.switch_cpus.num_insts                 10000001                       # Number of instructions executed
system.switch_cpus.num_refs                   2837031                       # Number of memory references
system.switch_cpus_1.BPredUnit.BTBCorrect            0                       # Number of correct BTB predictions (this stat may not work properly.
system.switch_cpus_1.BPredUnit.BTBHits        4465788                       # Number of BTB hits
system.switch_cpus_1.BPredUnit.BTBLookups      4655930                       # Number of BTB lookups
system.switch_cpus_1.BPredUnit.RASInCorrect           30                       # Number of incorrect RAS predictions.
system.switch_cpus_1.BPredUnit.condIncorrect        19935                       # Number of conditional branches incorrect
system.switch_cpus_1.BPredUnit.condPredicted      5238738                       # Number of conditional branches predicted
system.switch_cpus_1.BPredUnit.lookups        5382738                       # Number of BP lookups
system.switch_cpus_1.BPredUnit.usedRAS          53546                       # Number of times the RAS was used to get a target.
system.switch_cpus_1.commit.COM:branches      1639812                       # Number of branches committed
system.switch_cpus_1.commit.COM:bw_lim_events        50534                       # number cycles where commit BW limit reached
system.switch_cpus_1.commit.COM:bw_limited            0                       # number of insts not committed due to BW limits
system.switch_cpus_1.commit.COM:committed_per_cycle::samples     51590453                       # Number of insts commited each cycle
system.switch_cpus_1.commit.COM:committed_per_cycle::mean     0.199916                       # Number of insts commited each cycle
system.switch_cpus_1.commit.COM:committed_per_cycle::stdev     0.638082                       # Number of insts commited each cycle
system.switch_cpus_1.commit.COM:committed_per_cycle::underflows            0      0.00%      0.00% # Number of insts commited each cycle
system.switch_cpus_1.commit.COM:committed_per_cycle::0     44871790     86.98%     86.98% # Number of insts commited each cycle
system.switch_cpus_1.commit.COM:committed_per_cycle::1      4286049      8.31%     95.28% # Number of insts commited each cycle
system.switch_cpus_1.commit.COM:committed_per_cycle::2      2006903      3.89%     99.17% # Number of insts commited each cycle
system.switch_cpus_1.commit.COM:committed_per_cycle::3       137275      0.27%     99.44% # Number of insts commited each cycle
system.switch_cpus_1.commit.COM:committed_per_cycle::4        91032      0.18%     99.62% # Number of insts commited each cycle
system.switch_cpus_1.commit.COM:committed_per_cycle::5        78952      0.15%     99.77% # Number of insts commited each cycle
system.switch_cpus_1.commit.COM:committed_per_cycle::6        36518      0.07%     99.84% # Number of insts commited each cycle
system.switch_cpus_1.commit.COM:committed_per_cycle::7        31400      0.06%     99.90% # Number of insts commited each cycle
system.switch_cpus_1.commit.COM:committed_per_cycle::8        50534      0.10%    100.00% # Number of insts commited each cycle
system.switch_cpus_1.commit.COM:committed_per_cycle::overflows            0      0.00%    100.00% # Number of insts commited each cycle
system.switch_cpus_1.commit.COM:committed_per_cycle::min_value            0                       # Number of insts commited each cycle
system.switch_cpus_1.commit.COM:committed_per_cycle::max_value            8                       # Number of insts commited each cycle
system.switch_cpus_1.commit.COM:committed_per_cycle::total     51590453                       # Number of insts commited each cycle
system.switch_cpus_1.commit.COM:count        10313748                       # Number of instructions committed
system.switch_cpus_1.commit.COM:loads         2510912                       # Number of loads committed
system.switch_cpus_1.commit.COM:membars             0                       # Number of memory barriers committed
system.switch_cpus_1.commit.COM:refs          2655008                       # Number of memory references committed
system.switch_cpus_1.commit.COM:swp_count            0                       # Number of s/w prefetches committed
system.switch_cpus_1.commit.branchMispredicts        19599                       # The number of times a branch was mispredicted
system.switch_cpus_1.commit.commitCommittedInsts     10313748                       # The number of committed instructions
system.switch_cpus_1.commit.commitNonSpecStalls            1                       # The number of times commit has been forced to stall to communicate backwards
system.switch_cpus_1.commit.commitSquashedInsts     21820878                       # The number of squashed insts skipped by commit
system.switch_cpus_1.committedInsts          10000000                       # Number of Instructions Simulated
system.switch_cpus_1.committedInsts_total     10000000                       # Number of Instructions Simulated
system.switch_cpus_1.cpi                    25.856264                       # CPI: Cycles Per Instruction
system.switch_cpus_1.cpi_total              25.856264                       # CPI: Total CPI of All Threads
system.switch_cpus_1.decode.DECODE:BlockedCycles     36827127                       # Number of cycles decode is blocked
system.switch_cpus_1.decode.DECODE:BranchMispred          341                       # Number of times decode detected a branch misprediction
system.switch_cpus_1.decode.DECODE:BranchResolved        88084                       # Number of times decode resolved a branch
system.switch_cpus_1.decode.DECODE:DecodedInsts     33909108                       # Number of instructions handled by decode
system.switch_cpus_1.decode.DECODE:IdleCycles      7658583                       # Number of cycles decode is idle
system.switch_cpus_1.decode.DECODE:RunCycles      6427763                       # Number of cycles decode is running
system.switch_cpus_1.decode.DECODE:SquashCycles      2933046                       # Number of cycles decode is squashing
system.switch_cpus_1.decode.DECODE:SquashedInsts         1411                       # Number of squashed instructions handled by decode
system.switch_cpus_1.decode.DECODE:UnblockCycles       676979                       # Number of cycles decode is unblocking
system.switch_cpus_1.dtb.data_accesses        3993697                       # DTB accesses
system.switch_cpus_1.dtb.data_acv                   0                       # DTB access violations
system.switch_cpus_1.dtb.data_hits            3402392                       # DTB hits
system.switch_cpus_1.dtb.data_misses           591305                       # DTB misses
system.switch_cpus_1.dtb.fetch_accesses             0                       # ITB accesses
system.switch_cpus_1.dtb.fetch_acv                  0                       # ITB acv
system.switch_cpus_1.dtb.fetch_hits                 0                       # ITB hits
system.switch_cpus_1.dtb.fetch_misses               0                       # ITB misses
system.switch_cpus_1.dtb.read_accesses        3826000                       # DTB read accesses
system.switch_cpus_1.dtb.read_acv                   0                       # DTB read access violations
system.switch_cpus_1.dtb.read_hits            3235350                       # DTB read hits
system.switch_cpus_1.dtb.read_misses           590650                       # DTB read misses
system.switch_cpus_1.dtb.write_accesses        167697                       # DTB write accesses
system.switch_cpus_1.dtb.write_acv                  0                       # DTB write access violations
system.switch_cpus_1.dtb.write_hits            167042                       # DTB write hits
system.switch_cpus_1.dtb.write_misses             655                       # DTB write misses
system.switch_cpus_1.fetch.Branches           5382738                       # Number of branches that fetch encountered
system.switch_cpus_1.fetch.CacheLines         3230514                       # Number of cache lines fetched
system.switch_cpus_1.fetch.Cycles            10625215                       # Number of cycles fetch has run and was not squashing or blocked
system.switch_cpus_1.fetch.IcacheSquashes         4279                       # Number of outstanding Icache misses that were squashed
system.switch_cpus_1.fetch.Insts             35311617                       # Number of instructions fetch has processed
system.switch_cpus_1.fetch.SquashCycles        315010                       # Number of cycles fetch has spent squashing
system.switch_cpus_1.fetch.branchRate        0.020818                       # Number of branch fetches per cycle
system.switch_cpus_1.fetch.icacheStallCycles      3230514                       # Number of cycles fetch is stalled on an Icache miss
system.switch_cpus_1.fetch.predictedBranches      4519334                       # Number of branches that fetch has predicted taken
system.switch_cpus_1.fetch.rate              0.136569                       # Number of inst fetches per cycle
system.switch_cpus_1.fetch.rateDist::samples     54523499                       # Number of instructions fetched each cycle (Total)
system.switch_cpus_1.fetch.rateDist::mean     0.647640                       # Number of instructions fetched each cycle (Total)
system.switch_cpus_1.fetch.rateDist::stdev     1.839587                       # Number of instructions fetched each cycle (Total)
system.switch_cpus_1.fetch.rateDist::underflows            0      0.00%      0.00% # Number of instructions fetched each cycle (Total)
system.switch_cpus_1.fetch.rateDist::0       47128876     86.44%     86.44% # Number of instructions fetched each cycle (Total)
system.switch_cpus_1.fetch.rateDist::1         936441      1.72%     88.16% # Number of instructions fetched each cycle (Total)
system.switch_cpus_1.fetch.rateDist::2          74402      0.14%     88.29% # Number of instructions fetched each cycle (Total)
system.switch_cpus_1.fetch.rateDist::3          62787      0.12%     88.41% # Number of instructions fetched each cycle (Total)
system.switch_cpus_1.fetch.rateDist::4        4040617      7.41%     95.82% # Number of instructions fetched each cycle (Total)
system.switch_cpus_1.fetch.rateDist::5          56061      0.10%     95.92% # Number of instructions fetched each cycle (Total)
system.switch_cpus_1.fetch.rateDist::6          81871      0.15%     96.07% # Number of instructions fetched each cycle (Total)
system.switch_cpus_1.fetch.rateDist::7          35540      0.07%     96.14% # Number of instructions fetched each cycle (Total)
system.switch_cpus_1.fetch.rateDist::8        2106904      3.86%    100.00% # Number of instructions fetched each cycle (Total)
system.switch_cpus_1.fetch.rateDist::overflows            0      0.00%    100.00% # Number of instructions fetched each cycle (Total)
system.switch_cpus_1.fetch.rateDist::min_value            0                       # Number of instructions fetched each cycle (Total)
system.switch_cpus_1.fetch.rateDist::max_value            8                       # Number of instructions fetched each cycle (Total)
system.switch_cpus_1.fetch.rateDist::total     54523499                       # Number of instructions fetched each cycle (Total)
system.switch_cpus_1.idleCycles             204039136                       # Total number of cycles that the CPU has spent unscheduled due to idling
system.switch_cpus_1.iew.EXEC:branches        2324766                       # Number of branches executed
system.switch_cpus_1.iew.EXEC:nop              362070                       # number of nop insts executed
system.switch_cpus_1.iew.EXEC:rate           0.055141                       # Inst execution rate
system.switch_cpus_1.iew.EXEC:refs            4000113                       # number of memory reference insts executed
system.switch_cpus_1.iew.EXEC:stores           167697                       # Number of stores executed
system.switch_cpus_1.iew.EXEC:swp                   0                       # number of swp insts executed
system.switch_cpus_1.iew.WB:consumers        12082947                       # num instructions consuming a value
system.switch_cpus_1.iew.WB:count            13644321                       # cumulative count of insts written-back
system.switch_cpus_1.iew.WB:fanout           0.655133                       # average fanout of values written-back
system.switch_cpus_1.iew.WB:penalized               0                       # number of instrctions required to write to 'other' IQ
system.switch_cpus_1.iew.WB:penalized_rate            0                       # fraction of instructions written-back that wrote to 'other' IQ
system.switch_cpus_1.iew.WB:producers         7915941                       # num instructions producing a value
system.switch_cpus_1.iew.WB:rate             0.052770                       # insts written-back per cycle
system.switch_cpus_1.iew.WB:sent             14236198                       # cumulative count of insts sent to commit
system.switch_cpus_1.iew.branchMispredicts        22854                       # Number of branch mispredicts detected at execute
system.switch_cpus_1.iew.iewBlockCycles      26001122                       # Number of cycles IEW is blocking
system.switch_cpus_1.iew.iewDispLoadInsts      8756229                       # Number of dispatched load instructions
system.switch_cpus_1.iew.iewDispNonSpecInsts            1                       # Number of dispatched non-speculative instructions
system.switch_cpus_1.iew.iewDispSquashedInsts        19390                       # Number of squashed instructions skipped by dispatch
system.switch_cpus_1.iew.iewDispStoreInsts       185254                       # Number of dispatched store instructions
system.switch_cpus_1.iew.iewDispatchedInsts     32609171                       # Number of instructions dispatched to IQ
system.switch_cpus_1.iew.iewExecLoadInsts      3832416                       # Number of load instructions executed
system.switch_cpus_1.iew.iewExecSquashedInsts        18587                       # Number of squashed instructions skipped in execute
system.switch_cpus_1.iew.iewExecutedInsts     14257343                       # Number of executed instructions
system.switch_cpus_1.iew.iewIQFullEvents       386729                       # Number of times the IQ has become full, causing a stall
system.switch_cpus_1.iew.iewIdleCycles              0                       # Number of cycles IEW is idle
system.switch_cpus_1.iew.iewLSQFullEvents          930                       # Number of times the LSQ has become full, causing a stall
system.switch_cpus_1.iew.iewSquashCycles      2933046                       # Number of cycles IEW is squashing
system.switch_cpus_1.iew.iewUnblockCycles      1072418                       # Number of cycles IEW is unblocking
system.switch_cpus_1.iew.lsq.thread.0.blockedLoads            0                       # Number of blocked loads due to partial load-store forwarding
system.switch_cpus_1.iew.lsq.thread.0.cacheBlocked         5492                       # Number of times an access to memory failed due to the cache being blocked
system.switch_cpus_1.iew.lsq.thread.0.forwLoads        31811                       # Number of loads that had data forwarded from stores
system.switch_cpus_1.iew.lsq.thread.0.ignoredResponses          267                       # Number of memory responses ignored because the instruction is squashed
system.switch_cpus_1.iew.lsq.thread.0.invAddrLoads            0                       # Number of loads ignored due to an invalid address
system.switch_cpus_1.iew.lsq.thread.0.invAddrSwpfs            0                       # Number of software prefetches ignored due to an invalid address
system.switch_cpus_1.iew.lsq.thread.0.memOrderViolation          586                       # Number of memory ordering violations
system.switch_cpus_1.iew.lsq.thread.0.rescheduledLoads            0                       # Number of loads that were rescheduled
system.switch_cpus_1.iew.lsq.thread.0.squashedLoads      6245296                       # Number of loads squashed
system.switch_cpus_1.iew.lsq.thread.0.squashedStores        41158                       # Number of stores squashed
system.switch_cpus_1.iew.memOrderViolationEvents          586                       # Number of memory order violations
system.switch_cpus_1.iew.predictedNotTakenIncorrect         6797                       # Number of branches that were predicted not taken incorrectly
system.switch_cpus_1.iew.predictedTakenIncorrect        16057                       # Number of branches that were predicted taken incorrectly
system.switch_cpus_1.ipc                     0.038675                       # IPC: Instructions Per Cycle
system.switch_cpus_1.ipc_total               0.038675                       # IPC: Total IPC of All Threads
system.switch_cpus_1.iq.ISSUE:FU_type_0::No_OpClass            0      0.00%      0.00% # Type of FU issued
system.switch_cpus_1.iq.ISSUE:FU_type_0::IntAlu     10263627     71.89%     71.89% # Type of FU issued
system.switch_cpus_1.iq.ISSUE:FU_type_0::IntMult         1084      0.01%     71.90% # Type of FU issued
system.switch_cpus_1.iq.ISSUE:FU_type_0::IntDiv            0      0.00%     71.90% # Type of FU issued
system.switch_cpus_1.iq.ISSUE:FU_type_0::FloatAdd         3735      0.03%     71.93% # Type of FU issued
system.switch_cpus_1.iq.ISSUE:FU_type_0::FloatCmp            0      0.00%     71.93% # Type of FU issued
system.switch_cpus_1.iq.ISSUE:FU_type_0::FloatCvt         1100      0.01%     71.94% # Type of FU issued
system.switch_cpus_1.iq.ISSUE:FU_type_0::FloatMult          220      0.00%     71.94% # Type of FU issued
system.switch_cpus_1.iq.ISSUE:FU_type_0::FloatDiv            0      0.00%     71.94% # Type of FU issued
system.switch_cpus_1.iq.ISSUE:FU_type_0::FloatSqrt            0      0.00%     71.94% # Type of FU issued
system.switch_cpus_1.iq.ISSUE:FU_type_0::MemRead      3836863     26.88%     98.81% # Type of FU issued
system.switch_cpus_1.iq.ISSUE:FU_type_0::MemWrite       169301      1.19%    100.00% # Type of FU issued
system.switch_cpus_1.iq.ISSUE:FU_type_0::IprAccess            0      0.00%    100.00% # Type of FU issued
system.switch_cpus_1.iq.ISSUE:FU_type_0::InstPrefetch            0      0.00%    100.00% # Type of FU issued
system.switch_cpus_1.iq.ISSUE:FU_type_0::total     14275930                       # Type of FU issued
system.switch_cpus_1.iq.ISSUE:fu_busy_cnt         8721                       # FU busy when requested
system.switch_cpus_1.iq.ISSUE:fu_busy_rate     0.000611                       # FU busy rate (busy events/executed inst)
system.switch_cpus_1.iq.ISSUE:fu_full::No_OpClass            0      0.00%      0.00% # attempts to use FU when none available
system.switch_cpus_1.iq.ISSUE:fu_full::IntAlu           48      0.55%      0.55% # attempts to use FU when none available
system.switch_cpus_1.iq.ISSUE:fu_full::IntMult            0      0.00%      0.55% # attempts to use FU when none available
system.switch_cpus_1.iq.ISSUE:fu_full::IntDiv            0      0.00%      0.55% # attempts to use FU when none available
system.switch_cpus_1.iq.ISSUE:fu_full::FloatAdd            0      0.00%      0.55% # attempts to use FU when none available
system.switch_cpus_1.iq.ISSUE:fu_full::FloatCmp            0      0.00%      0.55% # attempts to use FU when none available
system.switch_cpus_1.iq.ISSUE:fu_full::FloatCvt            0      0.00%      0.55% # attempts to use FU when none available
system.switch_cpus_1.iq.ISSUE:fu_full::FloatMult            0      0.00%      0.55% # attempts to use FU when none available
system.switch_cpus_1.iq.ISSUE:fu_full::FloatDiv            0      0.00%      0.55% # attempts to use FU when none available
system.switch_cpus_1.iq.ISSUE:fu_full::FloatSqrt            0      0.00%      0.55% # attempts to use FU when none available
system.switch_cpus_1.iq.ISSUE:fu_full::MemRead         4799     55.03%     55.58% # attempts to use FU when none available
system.switch_cpus_1.iq.ISSUE:fu_full::MemWrite         3874     44.42%    100.00% # attempts to use FU when none available
system.switch_cpus_1.iq.ISSUE:fu_full::IprAccess            0      0.00%    100.00% # attempts to use FU when none available
system.switch_cpus_1.iq.ISSUE:fu_full::InstPrefetch            0      0.00%    100.00% # attempts to use FU when none available
system.switch_cpus_1.iq.ISSUE:issued_per_cycle::samples     54523499                       # Number of insts issued each cycle
system.switch_cpus_1.iq.ISSUE:issued_per_cycle::mean     0.261831                       # Number of insts issued each cycle
system.switch_cpus_1.iq.ISSUE:issued_per_cycle::stdev     0.645977                       # Number of insts issued each cycle
system.switch_cpus_1.iq.ISSUE:issued_per_cycle::underflows            0      0.00%      0.00% # Number of insts issued each cycle
system.switch_cpus_1.iq.ISSUE:issued_per_cycle::0     44263118     81.18%     81.18% # Number of insts issued each cycle
system.switch_cpus_1.iq.ISSUE:issued_per_cycle::1      7806458     14.32%     95.50% # Number of insts issued each cycle
system.switch_cpus_1.iq.ISSUE:issued_per_cycle::2      1276235      2.34%     97.84% # Number of insts issued each cycle
system.switch_cpus_1.iq.ISSUE:issued_per_cycle::3       914630      1.68%     99.52% # Number of insts issued each cycle
system.switch_cpus_1.iq.ISSUE:issued_per_cycle::4       162103      0.30%     99.81% # Number of insts issued each cycle
system.switch_cpus_1.iq.ISSUE:issued_per_cycle::5        85820      0.16%     99.97% # Number of insts issued each cycle
system.switch_cpus_1.iq.ISSUE:issued_per_cycle::6        10569      0.02%     99.99% # Number of insts issued each cycle
system.switch_cpus_1.iq.ISSUE:issued_per_cycle::7         4342      0.01%    100.00% # Number of insts issued each cycle
system.switch_cpus_1.iq.ISSUE:issued_per_cycle::8          224      0.00%    100.00% # Number of insts issued each cycle
system.switch_cpus_1.iq.ISSUE:issued_per_cycle::overflows            0      0.00%    100.00% # Number of insts issued each cycle
system.switch_cpus_1.iq.ISSUE:issued_per_cycle::min_value            0                       # Number of insts issued each cycle
system.switch_cpus_1.iq.ISSUE:issued_per_cycle::max_value            8                       # Number of insts issued each cycle
system.switch_cpus_1.iq.ISSUE:issued_per_cycle::total     54523499                       # Number of insts issued each cycle
system.switch_cpus_1.iq.ISSUE:rate           0.055213                       # Inst issue rate
system.switch_cpus_1.iq.iqInstsAdded         32247100                       # Number of instructions added to the IQ (excludes non-spec)
system.switch_cpus_1.iq.iqInstsIssued        14275930                       # Number of instructions issued
system.switch_cpus_1.iq.iqNonSpecInstsAdded            1                       # Number of non-speculative instructions added to the IQ
system.switch_cpus_1.iq.iqSquashedInstsExamined     22227754                       # Number of squashed instructions iterated over during squash; mainly for profiling
system.switch_cpus_1.iq.iqSquashedInstsIssued          530                       # Number of squashed instructions issued
system.switch_cpus_1.iq.iqSquashedOperandsExamined     31594455                       # Number of squashed operands that are examined and possibly removed from graph
system.switch_cpus_1.itb.data_accesses              0                       # DTB accesses
system.switch_cpus_1.itb.data_acv                   0                       # DTB access violations
system.switch_cpus_1.itb.data_hits                  0                       # DTB hits
system.switch_cpus_1.itb.data_misses                0                       # DTB misses
system.switch_cpus_1.itb.fetch_accesses       3230592                       # ITB accesses
system.switch_cpus_1.itb.fetch_acv                  0                       # ITB acv
system.switch_cpus_1.itb.fetch_hits           3230514                       # ITB hits
system.switch_cpus_1.itb.fetch_misses              78                       # ITB misses
system.switch_cpus_1.itb.read_accesses              0                       # DTB read accesses
system.switch_cpus_1.itb.read_acv                   0                       # DTB read access violations
system.switch_cpus_1.itb.read_hits                  0                       # DTB read hits
system.switch_cpus_1.itb.read_misses                0                       # DTB read misses
system.switch_cpus_1.itb.write_accesses             0                       # DTB write accesses
system.switch_cpus_1.itb.write_acv                  0                       # DTB write access violations
system.switch_cpus_1.itb.write_hits                 0                       # DTB write hits
system.switch_cpus_1.itb.write_misses               0                       # DTB write misses
system.switch_cpus_1.memDep0.conflictingLoads        68145                       # Number of conflicting loads.
system.switch_cpus_1.memDep0.conflictingStores         2654                       # Number of conflicting stores.
system.switch_cpus_1.memDep0.insertedLoads      8756229                       # Number of loads inserted to the mem dependence unit.
system.switch_cpus_1.memDep0.insertedStores       185254                       # Number of stores inserted to the mem dependence unit.
system.switch_cpus_1.numCycles              258562635                       # number of cpu cycles simulated
system.switch_cpus_1.rename.RENAME:BlockCycles     32836621                       # Number of cycles rename is blocking
system.switch_cpus_1.rename.RENAME:CommittedMaps      8255878                       # Number of HB maps that are committed
system.switch_cpus_1.rename.RENAME:IQFullEvents      4194023                       # Number of times rename has blocked due to IQ full
system.switch_cpus_1.rename.RENAME:IdleCycles      8232031                       # Number of cycles rename is idle
system.switch_cpus_1.rename.RENAME:LSQFullEvents        24474                       # Number of times rename has blocked due to LSQ full
system.switch_cpus_1.rename.RENAME:ROBFullEvents          698                       # Number of times rename has blocked due to ROB full
system.switch_cpus_1.rename.RENAME:RenameLookups     53286257                       # Number of register rename lookups that rename has made
system.switch_cpus_1.rename.RENAME:RenamedInsts     33065861                       # Number of instructions processed by rename
system.switch_cpus_1.rename.RENAME:RenamedOperands     27522047                       # Number of destination operands rename has renamed
system.switch_cpus_1.rename.RENAME:RunCycles      6564509                       # Number of cycles rename is running
system.switch_cpus_1.rename.RENAME:SquashCycles      2933046                       # Number of cycles rename is squashing
system.switch_cpus_1.rename.RENAME:UnblockCycles      3957280                       # Number of cycles rename is unblocking
system.switch_cpus_1.rename.RENAME:UndoneMaps     19266102                       # Number of HB maps that are undone due to squashing
system.switch_cpus_1.rename.RENAME:serializeStallCycles           11                       # count of cycles rename stalled for serializing inst
system.switch_cpus_1.rename.RENAME:serializingInsts            1                       # count of serializing insts renamed
system.switch_cpus_1.rename.RENAME:skidInsts      7722228                       # count of insts added to the skid buffer
system.switch_cpus_1.rename.RENAME:tempSerializingInsts            1                       # count of temporary serializing insts renamed
system.switch_cpus_1.timesIdled               1812015                       # Number of times that the entire CPU went into an idle state and unscheduled itself

---------- End Simulation Statistics   ----------
