
---------- Begin Simulation Statistics ----------
host_inst_rate                                 405364                       # Simulator instruction rate (inst/s)
host_mem_usage                                 402612                       # Number of bytes of host memory used
host_seconds                                    49.34                       # Real time elapsed on the host
host_tick_rate                              351088492                       # Simulator tick rate (ticks/s)
sim_freq                                 1000000000000                       # Frequency of simulated ticks
sim_insts                                    20000003                       # Number of instructions simulated
sim_seconds                                  0.017322                       # Number of seconds simulated
sim_ticks                                 17322211500                       # Number of ticks simulated
system.cpu.dcache.ReadReq_accesses            3278058                       # number of ReadReq accesses(hits+misses)
system.cpu.dcache.ReadReq_avg_miss_latency 21172.061731                       # average ReadReq miss latency
system.cpu.dcache.ReadReq_avg_mshr_miss_latency 18359.316854                       # average ReadReq mshr miss latency
system.cpu.dcache.ReadReq_hits                3220907                       # number of ReadReq hits
system.cpu.dcache.ReadReq_miss_latency     1210004500                       # number of ReadReq miss cycles
system.cpu.dcache.ReadReq_miss_rate          0.017434                       # miss rate for ReadReq accesses
system.cpu.dcache.ReadReq_misses                57151                       # number of ReadReq misses
system.cpu.dcache.ReadReq_mshr_hits              1525                       # number of ReadReq MSHR hits
system.cpu.dcache.ReadReq_mshr_miss_latency   1021237000                       # number of ReadReq MSHR miss cycles
system.cpu.dcache.ReadReq_mshr_miss_rate     0.016969                       # mshr miss rate for ReadReq accesses
system.cpu.dcache.ReadReq_mshr_misses           55625                       # number of ReadReq MSHR misses
system.cpu.dcache.WriteReq_accesses           2972399                       # number of WriteReq accesses(hits+misses)
system.cpu.dcache.WriteReq_avg_miss_latency 18555.218216                       # average WriteReq miss latency
system.cpu.dcache.WriteReq_avg_mshr_miss_latency 15443.609023                       # average WriteReq mshr miss latency
system.cpu.dcache.WriteReq_hits               2969764                       # number of WriteReq hits
system.cpu.dcache.WriteReq_miss_latency      48893000                       # number of WriteReq miss cycles
system.cpu.dcache.WriteReq_miss_rate         0.000886                       # miss rate for WriteReq accesses
system.cpu.dcache.WriteReq_misses                2635                       # number of WriteReq misses
system.cpu.dcache.WriteReq_mshr_hits              108                       # number of WriteReq MSHR hits
system.cpu.dcache.WriteReq_mshr_miss_latency     39026000                       # number of WriteReq MSHR miss cycles
system.cpu.dcache.WriteReq_mshr_miss_rate     0.000850                       # mshr miss rate for WriteReq accesses
system.cpu.dcache.WriteReq_mshr_misses           2527                       # number of WriteReq MSHR misses
system.cpu.dcache.avg_blocked_cycles::no_mshrs     no_value                       # average number of cycles each access was blocked
system.cpu.dcache.avg_blocked_cycles::no_targets        49600                       # average number of cycles each access was blocked
system.cpu.dcache.avg_refs                 106.880378                       # Average number of references to valid blocks.
system.cpu.dcache.blocked::no_mshrs                 0                       # number of cycles access was blocked
system.cpu.dcache.blocked::no_targets              10                       # number of cycles access was blocked
system.cpu.dcache.blocked_cycles::no_mshrs            0                       # number of cycles access was blocked
system.cpu.dcache.blocked_cycles::no_targets       496000                       # number of cycles access was blocked
system.cpu.dcache.cache_copies                      0                       # number of cache copies performed
system.cpu.dcache.demand_accesses             6250457                       # number of demand (read+write) accesses
system.cpu.dcache.demand_avg_miss_latency 21056.727327                       # average overall miss latency
system.cpu.dcache.demand_avg_mshr_miss_latency 18232.614527                       # average overall mshr miss latency
system.cpu.dcache.demand_hits                 6190671                       # number of demand (read+write) hits
system.cpu.dcache.demand_miss_latency      1258897500                       # number of demand (read+write) miss cycles
system.cpu.dcache.demand_miss_rate           0.009565                       # miss rate for demand accesses
system.cpu.dcache.demand_misses                 59786                       # number of demand (read+write) misses
system.cpu.dcache.demand_mshr_hits               1633                       # number of demand (read+write) MSHR hits
system.cpu.dcache.demand_mshr_miss_latency   1060263000                       # number of demand (read+write) MSHR miss cycles
system.cpu.dcache.demand_mshr_miss_rate      0.009304                       # mshr miss rate for demand accesses
system.cpu.dcache.demand_mshr_misses            58152                       # number of demand (read+write) MSHR misses
system.cpu.dcache.fast_writes                       0                       # number of fast writes performed
system.cpu.dcache.mshr_cap_events                   0                       # number of times MSHR cap was activated
system.cpu.dcache.no_allocate_misses                0                       # Number of misses that were no-allocate
system.cpu.dcache.occ_%::0                   0.975078                       # Average percentage of cache occupancy
system.cpu.dcache.occ_blocks::0            998.480102                       # Average occupied blocks per context
system.cpu.dcache.overall_accesses            6250457                       # number of overall (read+write) accesses
system.cpu.dcache.overall_avg_miss_latency 21056.727327                       # average overall miss latency
system.cpu.dcache.overall_avg_mshr_miss_latency 18232.614527                       # average overall mshr miss latency
system.cpu.dcache.overall_avg_mshr_uncacheable_latency     no_value                       # average overall mshr uncacheable latency
system.cpu.dcache.overall_hits                6190671                       # number of overall hits
system.cpu.dcache.overall_miss_latency     1258897500                       # number of overall miss cycles
system.cpu.dcache.overall_miss_rate          0.009565                       # miss rate for overall accesses
system.cpu.dcache.overall_misses                59786                       # number of overall misses
system.cpu.dcache.overall_mshr_hits              1633                       # number of overall MSHR hits
system.cpu.dcache.overall_mshr_miss_latency   1060263000                       # number of overall MSHR miss cycles
system.cpu.dcache.overall_mshr_miss_rate     0.009304                       # mshr miss rate for overall accesses
system.cpu.dcache.overall_mshr_misses           58152                       # number of overall MSHR misses
system.cpu.dcache.overall_mshr_uncacheable_latency            0                       # number of overall MSHR uncacheable cycles
system.cpu.dcache.overall_mshr_uncacheable_misses            0                       # number of overall MSHR uncacheable misses
system.cpu.dcache.prefetch_accuracy          no_value                       # ratio of good prefetches to total prefetches
system.cpu.dcache.prefetch_hits                     0                       # number of prefetched blocks that were accessed
system.cpu.dcache.replacements                  56900                       # number of replacements
system.cpu.dcache.sampled_refs                  57924                       # Sample count of references to valid blocks.
system.cpu.dcache.soft_prefetch_mshr_full            0                       # number of mshr full events for SW prefetching instrutions
system.cpu.dcache.tagsinuse                998.480102                       # Cycle average of tags in use
system.cpu.dcache.total_refs                  6190939                       # Total number of references to valid blocks.
system.cpu.dcache.warmup_cycle           503807652500                       # Cycle when the warmup percentage was hit.
system.cpu.dcache.writebacks                     2467                       # number of writebacks
system.cpu.dtb.data_accesses                        1                       # DTB accesses
system.cpu.dtb.data_acv                             0                       # DTB access violations
system.cpu.dtb.data_hits                            1                       # DTB hits
system.cpu.dtb.data_misses                          0                       # DTB misses
system.cpu.dtb.fetch_accesses                       0                       # ITB accesses
system.cpu.dtb.fetch_acv                            0                       # ITB acv
system.cpu.dtb.fetch_hits                           0                       # ITB hits
system.cpu.dtb.fetch_misses                         0                       # ITB misses
system.cpu.dtb.read_accesses                        1                       # DTB read accesses
system.cpu.dtb.read_acv                             0                       # DTB read access violations
system.cpu.dtb.read_hits                            1                       # DTB read hits
system.cpu.dtb.read_misses                          0                       # DTB read misses
system.cpu.dtb.write_accesses                       0                       # DTB write accesses
system.cpu.dtb.write_acv                            0                       # DTB write access violations
system.cpu.dtb.write_hits                           0                       # DTB write hits
system.cpu.dtb.write_misses                         0                       # DTB write misses
system.cpu.icache.ReadReq_accesses           11906771                       # number of ReadReq accesses(hits+misses)
system.cpu.icache.ReadReq_avg_miss_latency        48000                       # average ReadReq miss latency
system.cpu.icache.ReadReq_avg_mshr_miss_latency 57187.500000                       # average ReadReq mshr miss latency
system.cpu.icache.ReadReq_hits               11906758                       # number of ReadReq hits
system.cpu.icache.ReadReq_miss_latency         624000                       # number of ReadReq miss cycles
system.cpu.icache.ReadReq_miss_rate          0.000001                       # miss rate for ReadReq accesses
system.cpu.icache.ReadReq_misses                   13                       # number of ReadReq misses
system.cpu.icache.ReadReq_mshr_hits                 4                       # number of ReadReq MSHR hits
system.cpu.icache.ReadReq_mshr_miss_latency       457500                       # number of ReadReq MSHR miss cycles
system.cpu.icache.ReadReq_mshr_miss_rate     0.000001                       # mshr miss rate for ReadReq accesses
system.cpu.icache.ReadReq_mshr_misses               8                       # number of ReadReq MSHR misses
system.cpu.icache.avg_blocked_cycles::no_mshrs     no_value                       # average number of cycles each access was blocked
system.cpu.icache.avg_blocked_cycles::no_targets        20500                       # average number of cycles each access was blocked
system.cpu.icache.avg_refs               1322973.111111                       # Average number of references to valid blocks.
system.cpu.icache.blocked::no_mshrs                 0                       # number of cycles access was blocked
system.cpu.icache.blocked::no_targets               1                       # number of cycles access was blocked
system.cpu.icache.blocked_cycles::no_mshrs            0                       # number of cycles access was blocked
system.cpu.icache.blocked_cycles::no_targets        20500                       # number of cycles access was blocked
system.cpu.icache.cache_copies                      0                       # number of cache copies performed
system.cpu.icache.demand_accesses            11906771                       # number of demand (read+write) accesses
system.cpu.icache.demand_avg_miss_latency        48000                       # average overall miss latency
system.cpu.icache.demand_avg_mshr_miss_latency 57187.500000                       # average overall mshr miss latency
system.cpu.icache.demand_hits                11906758                       # number of demand (read+write) hits
system.cpu.icache.demand_miss_latency          624000                       # number of demand (read+write) miss cycles
system.cpu.icache.demand_miss_rate           0.000001                       # miss rate for demand accesses
system.cpu.icache.demand_misses                    13                       # number of demand (read+write) misses
system.cpu.icache.demand_mshr_hits                  4                       # number of demand (read+write) MSHR hits
system.cpu.icache.demand_mshr_miss_latency       457500                       # number of demand (read+write) MSHR miss cycles
system.cpu.icache.demand_mshr_miss_rate      0.000001                       # mshr miss rate for demand accesses
system.cpu.icache.demand_mshr_misses                8                       # number of demand (read+write) MSHR misses
system.cpu.icache.fast_writes                       0                       # number of fast writes performed
system.cpu.icache.mshr_cap_events                   0                       # number of times MSHR cap was activated
system.cpu.icache.no_allocate_misses                0                       # Number of misses that were no-allocate
system.cpu.icache.occ_%::0                   0.012824                       # Average percentage of cache occupancy
system.cpu.icache.occ_blocks::0              6.566014                       # Average occupied blocks per context
system.cpu.icache.overall_accesses           11906771                       # number of overall (read+write) accesses
system.cpu.icache.overall_avg_miss_latency        48000                       # average overall miss latency
system.cpu.icache.overall_avg_mshr_miss_latency 57187.500000                       # average overall mshr miss latency
system.cpu.icache.overall_avg_mshr_uncacheable_latency     no_value                       # average overall mshr uncacheable latency
system.cpu.icache.overall_hits               11906758                       # number of overall hits
system.cpu.icache.overall_miss_latency         624000                       # number of overall miss cycles
system.cpu.icache.overall_miss_rate          0.000001                       # miss rate for overall accesses
system.cpu.icache.overall_misses                   13                       # number of overall misses
system.cpu.icache.overall_mshr_hits                 4                       # number of overall MSHR hits
system.cpu.icache.overall_mshr_miss_latency       457500                       # number of overall MSHR miss cycles
system.cpu.icache.overall_mshr_miss_rate     0.000001                       # mshr miss rate for overall accesses
system.cpu.icache.overall_mshr_misses               8                       # number of overall MSHR misses
system.cpu.icache.overall_mshr_uncacheable_latency            0                       # number of overall MSHR uncacheable cycles
system.cpu.icache.overall_mshr_uncacheable_misses            0                       # number of overall MSHR uncacheable misses
system.cpu.icache.prefetch_accuracy          no_value                       # ratio of good prefetches to total prefetches
system.cpu.icache.prefetch_hits                     0                       # number of prefetched blocks that were accessed
system.cpu.icache.replacements                      0                       # number of replacements
system.cpu.icache.sampled_refs                      9                       # Sample count of references to valid blocks.
system.cpu.icache.soft_prefetch_mshr_full            0                       # number of mshr full events for SW prefetching instrutions
system.cpu.icache.tagsinuse                  6.566014                       # Cycle average of tags in use
system.cpu.icache.total_refs                 11906758                       # Total number of references to valid blocks.
system.cpu.icache.warmup_cycle                      0                       # Cycle when the warmup percentage was hit.
system.cpu.icache.writebacks                        0                       # number of writebacks
system.cpu.idle_fraction                            0                       # Percentage of idle cycles
system.cpu.itb.data_accesses                        0                       # DTB accesses
system.cpu.itb.data_acv                             0                       # DTB access violations
system.cpu.itb.data_hits                            0                       # DTB hits
system.cpu.itb.data_misses                          0                       # DTB misses
system.cpu.itb.fetch_accesses                       2                       # ITB accesses
system.cpu.itb.fetch_acv                            0                       # ITB acv
system.cpu.itb.fetch_hits                           2                       # ITB hits
system.cpu.itb.fetch_misses                         0                       # ITB misses
system.cpu.itb.read_accesses                        0                       # DTB read accesses
system.cpu.itb.read_acv                             0                       # DTB read access violations
system.cpu.itb.read_hits                            0                       # DTB read hits
system.cpu.itb.read_misses                          0                       # DTB read misses
system.cpu.itb.write_accesses                       0                       # DTB write accesses
system.cpu.itb.write_acv                            0                       # DTB write access violations
system.cpu.itb.write_hits                           0                       # DTB write hits
system.cpu.itb.write_misses                         0                       # DTB write misses
system.cpu.not_idle_fraction                        1                       # Percentage of non-idle cycles
system.cpu.numCycles                                2                       # number of cpu cycles simulated
system.cpu.num_insts                                2                       # Number of instructions executed
system.cpu.num_refs                                 1                       # Number of memory references
system.cpu.workload.PROG:num_syscalls               0                       # Number of system calls
system.l2.HardPFReq_avg_mshr_miss_latency 33242.253047                       # average HardPFReq mshr miss latency
system.l2.HardPFReq_mshr_miss_latency       231864715                       # number of HardPFReq MSHR miss cycles
system.l2.HardPFReq_mshr_miss_rate                inf                       # mshr miss rate for HardPFReq accesses
system.l2.HardPFReq_mshr_misses                  6975                       # number of HardPFReq MSHR misses
system.l2.ReadExReq_accesses                     2298                       # number of ReadExReq accesses(hits+misses)
system.l2.ReadExReq_avg_miss_latency            56050                       # average ReadExReq miss latency
system.l2.ReadExReq_avg_mshr_miss_latency        40000                       # average ReadExReq mshr miss latency
system.l2.ReadExReq_hits                         2288                       # number of ReadExReq hits
system.l2.ReadExReq_miss_latency               560500                       # number of ReadExReq miss cycles
system.l2.ReadExReq_miss_rate                0.004352                       # miss rate for ReadExReq accesses
system.l2.ReadExReq_misses                         10                       # number of ReadExReq misses
system.l2.ReadExReq_mshr_miss_latency          400000                       # number of ReadExReq MSHR miss cycles
system.l2.ReadExReq_mshr_miss_rate           0.004352                       # mshr miss rate for ReadExReq accesses
system.l2.ReadExReq_mshr_misses                    10                       # number of ReadExReq MSHR misses
system.l2.ReadReq_accesses                      55635                       # number of ReadReq accesses(hits+misses)
system.l2.ReadReq_avg_miss_latency       56222.732947                       # average ReadReq miss latency
system.l2.ReadReq_avg_mshr_miss_latency  40251.390623                       # average ReadReq mshr miss latency
system.l2.ReadReq_hits                          46824                       # number of ReadReq hits
system.l2.ReadReq_miss_latency              495378500                       # number of ReadReq miss cycles
system.l2.ReadReq_miss_rate                  0.158372                       # miss rate for ReadReq accesses
system.l2.ReadReq_misses                         8811                       # number of ReadReq misses
system.l2.ReadReq_mshr_miss_latency         354574500                       # number of ReadReq MSHR miss cycles
system.l2.ReadReq_mshr_miss_rate             0.158336                       # mshr miss rate for ReadReq accesses
system.l2.ReadReq_mshr_misses                    8809                       # number of ReadReq MSHR misses
system.l2.UpgradeReq_accesses                     229                       # number of UpgradeReq accesses(hits+misses)
system.l2.UpgradeReq_avg_miss_latency    56408.296943                       # average UpgradeReq miss latency
system.l2.UpgradeReq_avg_mshr_miss_latency 40390.829694                       # average UpgradeReq mshr miss latency
system.l2.UpgradeReq_miss_latency            12917500                       # number of UpgradeReq miss cycles
system.l2.UpgradeReq_miss_rate                      1                       # miss rate for UpgradeReq accesses
system.l2.UpgradeReq_misses                       229                       # number of UpgradeReq misses
system.l2.UpgradeReq_mshr_miss_latency        9249500                       # number of UpgradeReq MSHR miss cycles
system.l2.UpgradeReq_mshr_miss_rate                 1                       # mshr miss rate for UpgradeReq accesses
system.l2.UpgradeReq_mshr_misses                  229                       # number of UpgradeReq MSHR misses
system.l2.Writeback_accesses                     2467                       # number of Writeback accesses(hits+misses)
system.l2.Writeback_hits                         2467                       # number of Writeback hits
system.l2.avg_blocked_cycles::no_mshrs       no_value                       # average number of cycles each access was blocked
system.l2.avg_blocked_cycles::no_targets     no_value                       # average number of cycles each access was blocked
system.l2.avg_refs                           3.020734                       # Average number of references to valid blocks.
system.l2.blocked::no_mshrs                         0                       # number of cycles access was blocked
system.l2.blocked::no_targets                       0                       # number of cycles access was blocked
system.l2.blocked_cycles::no_mshrs                  0                       # number of cycles access was blocked
system.l2.blocked_cycles::no_targets                0                       # number of cycles access was blocked
system.l2.cache_copies                              0                       # number of cache copies performed
system.l2.demand_accesses                       57933                       # number of demand (read+write) accesses
system.l2.demand_avg_miss_latency        56222.537127                       # average overall miss latency
system.l2.demand_avg_mshr_miss_latency   40251.105568                       # average overall mshr miss latency
system.l2.demand_hits                           49112                       # number of demand (read+write) hits
system.l2.demand_miss_latency               495939000                       # number of demand (read+write) miss cycles
system.l2.demand_miss_rate                   0.152262                       # miss rate for demand accesses
system.l2.demand_misses                          8821                       # number of demand (read+write) misses
system.l2.demand_mshr_hits                          0                       # number of demand (read+write) MSHR hits
system.l2.demand_mshr_miss_latency          354974500                       # number of demand (read+write) MSHR miss cycles
system.l2.demand_mshr_miss_rate              0.152228                       # mshr miss rate for demand accesses
system.l2.demand_mshr_misses                     8819                       # number of demand (read+write) MSHR misses
system.l2.fast_writes                               0                       # number of fast writes performed
system.l2.mshr_cap_events                           0                       # number of times MSHR cap was activated
system.l2.no_allocate_misses                        0                       # Number of misses that were no-allocate
system.l2.occ_%::0                           0.470768                       # Average percentage of cache occupancy
system.l2.occ_%::1                           0.044532                       # Average percentage of cache occupancy
system.l2.occ_blocks::0                   7713.066297                       # Average occupied blocks per context
system.l2.occ_blocks::1                    729.619650                       # Average occupied blocks per context
system.l2.overall_accesses                      57933                       # number of overall (read+write) accesses
system.l2.overall_avg_miss_latency       56222.537127                       # average overall miss latency
system.l2.overall_avg_mshr_miss_latency  37155.832278                       # average overall mshr miss latency
system.l2.overall_avg_mshr_uncacheable_latency     no_value                       # average overall mshr uncacheable latency
system.l2.overall_hits                          49112                       # number of overall hits
system.l2.overall_miss_latency              495939000                       # number of overall miss cycles
system.l2.overall_miss_rate                  0.152262                       # miss rate for overall accesses
system.l2.overall_misses                         8821                       # number of overall misses
system.l2.overall_mshr_hits                         0                       # number of overall MSHR hits
system.l2.overall_mshr_miss_latency         586839215                       # number of overall MSHR miss cycles
system.l2.overall_mshr_miss_rate             0.272625                       # mshr miss rate for overall accesses
system.l2.overall_mshr_misses                   15794                       # number of overall MSHR misses
system.l2.overall_mshr_uncacheable_latency            0                       # number of overall MSHR uncacheable cycles
system.l2.overall_mshr_uncacheable_misses            0                       # number of overall MSHR uncacheable misses
system.l2.prefetch_accuracy                  0.481004                       # ratio of good prefetches to total prefetches
system.l2.prefetch_hits                          3355                       # number of prefetched blocks that were accessed
system.l2.prefetcher.num_hwpf_already_in_prefetcher           74                       # number of hwpf that were already in the prefetch queue
system.l2.prefetcher.num_hwpf_evicted               0                       # number of hwpf removed due to no buffer left
system.l2.prefetcher.num_hwpf_identified         7049                       # number of hwpf identified
system.l2.prefetcher.num_hwpf_issued             6975                       # number of hwpf issued
system.l2.prefetcher.num_hwpf_removed_MSHR_hit            0                       # number of hwpf removed because MSHR allocated
system.l2.prefetcher.num_hwpf_span_page             0                       # number of hwpf spanning a virtual page
system.l2.prefetcher.num_hwpf_squashed_from_miss            0                       # number of hwpf that got squashed due to a miss aborting calculation time
system.l2.replacements                           1653                       # number of replacements
system.l2.sampled_refs                          15675                       # Sample count of references to valid blocks.
system.l2.soft_prefetch_mshr_full                   0                       # number of mshr full events for SW prefetching instrutions
system.l2.tagsinuse                       8442.685947                       # Cycle average of tags in use
system.l2.total_refs                            47350                       # Total number of references to valid blocks.
system.l2.warmup_cycle                              0                       # Cycle when the warmup percentage was hit.
system.l2.writebacks                              324                       # number of writebacks
system.switch_cpus.dtb.data_accesses          3032396                       # DTB accesses
system.switch_cpus.dtb.data_acv                     0                       # DTB access violations
system.switch_cpus.dtb.data_hits              3023144                       # DTB hits
system.switch_cpus.dtb.data_misses               9252                       # DTB misses
system.switch_cpus.dtb.fetch_accesses               0                       # ITB accesses
system.switch_cpus.dtb.fetch_acv                    0                       # ITB acv
system.switch_cpus.dtb.fetch_hits                   0                       # ITB hits
system.switch_cpus.dtb.fetch_misses                 0                       # ITB misses
system.switch_cpus.dtb.read_accesses          1557076                       # DTB read accesses
system.switch_cpus.dtb.read_acv                     0                       # DTB read access violations
system.switch_cpus.dtb.read_hits              1547977                       # DTB read hits
system.switch_cpus.dtb.read_misses               9099                       # DTB read misses
system.switch_cpus.dtb.write_accesses         1475320                       # DTB write accesses
system.switch_cpus.dtb.write_acv                    0                       # DTB write access violations
system.switch_cpus.dtb.write_hits             1475167                       # DTB write hits
system.switch_cpus.dtb.write_misses               153                       # DTB write misses
system.switch_cpus.idle_fraction                    1                       # Percentage of idle cycles
system.switch_cpus.itb.data_accesses                0                       # DTB accesses
system.switch_cpus.itb.data_acv                     0                       # DTB access violations
system.switch_cpus.itb.data_hits                    0                       # DTB hits
system.switch_cpus.itb.data_misses                  0                       # DTB misses
system.switch_cpus.itb.fetch_accesses        10009255                       # ITB accesses
system.switch_cpus.itb.fetch_acv                    0                       # ITB acv
system.switch_cpus.itb.fetch_hits            10009254                       # ITB hits
system.switch_cpus.itb.fetch_misses                 1                       # ITB misses
system.switch_cpus.itb.read_accesses                0                       # DTB read accesses
system.switch_cpus.itb.read_acv                     0                       # DTB read access violations
system.switch_cpus.itb.read_hits                    0                       # DTB read hits
system.switch_cpus.itb.read_misses                  0                       # DTB read misses
system.switch_cpus.itb.write_accesses               0                       # DTB write accesses
system.switch_cpus.itb.write_acv                    0                       # DTB write access violations
system.switch_cpus.itb.write_hits                   0                       # DTB write hits
system.switch_cpus.itb.write_misses                 0                       # DTB write misses
system.switch_cpus.not_idle_fraction                0                       # Percentage of non-idle cycles
system.switch_cpus.numCycles                 27568561                       # number of cpu cycles simulated
system.switch_cpus.num_insts                 10000001                       # Number of instructions executed
system.switch_cpus.num_refs                   3032396                       # Number of memory references
system.switch_cpus_1.BPredUnit.BTBCorrect            0                       # Number of correct BTB predictions (this stat may not work properly.
system.switch_cpus_1.BPredUnit.BTBHits        1755726                       # Number of BTB hits
system.switch_cpus_1.BPredUnit.BTBLookups      1762560                       # Number of BTB lookups
system.switch_cpus_1.BPredUnit.RASInCorrect            0                       # Number of incorrect RAS predictions.
system.switch_cpus_1.BPredUnit.condIncorrect        78663                       # Number of conditional branches incorrect
system.switch_cpus_1.BPredUnit.condPredicted      1962384                       # Number of conditional branches predicted
system.switch_cpus_1.BPredUnit.lookups        1973077                       # Number of BP lookups
system.switch_cpus_1.BPredUnit.usedRAS              0                       # Number of times the RAS was used to get a target.
system.switch_cpus_1.commit.COM:branches      1540870                       # Number of branches committed
system.switch_cpus_1.commit.COM:bw_lim_events        56975                       # number cycles where commit BW limit reached
system.switch_cpus_1.commit.COM:bw_limited            0                       # number of insts not committed due to BW limits
system.switch_cpus_1.commit.COM:committed_per_cycle::samples      6763550                       # Number of insts commited each cycle
system.switch_cpus_1.commit.COM:committed_per_cycle::mean     1.501458                       # Number of insts commited each cycle
system.switch_cpus_1.commit.COM:committed_per_cycle::stdev     1.779717                       # Number of insts commited each cycle
system.switch_cpus_1.commit.COM:committed_per_cycle::underflows            0      0.00%      0.00% # Number of insts commited each cycle
system.switch_cpus_1.commit.COM:committed_per_cycle::0      2215221     32.75%     32.75% # Number of insts commited each cycle
system.switch_cpus_1.commit.COM:committed_per_cycle::1      2909122     43.01%     75.76% # Number of insts commited each cycle
system.switch_cpus_1.commit.COM:committed_per_cycle::2        85259      1.26%     77.02% # Number of insts commited each cycle
system.switch_cpus_1.commit.COM:committed_per_cycle::3        61518      0.91%     77.93% # Number of insts commited each cycle
system.switch_cpus_1.commit.COM:committed_per_cycle::4       747078     11.05%     88.98% # Number of insts commited each cycle
system.switch_cpus_1.commit.COM:committed_per_cycle::5       684671     10.12%     99.10% # Number of insts commited each cycle
system.switch_cpus_1.commit.COM:committed_per_cycle::6         2419      0.04%     99.14% # Number of insts commited each cycle
system.switch_cpus_1.commit.COM:committed_per_cycle::7         1287      0.02%     99.16% # Number of insts commited each cycle
system.switch_cpus_1.commit.COM:committed_per_cycle::8        56975      0.84%    100.00% # Number of insts commited each cycle
system.switch_cpus_1.commit.COM:committed_per_cycle::overflows            0      0.00%    100.00% # Number of insts commited each cycle
system.switch_cpus_1.commit.COM:committed_per_cycle::min_value            0                       # Number of insts commited each cycle
system.switch_cpus_1.commit.COM:committed_per_cycle::max_value            8                       # Number of insts commited each cycle
system.switch_cpus_1.commit.COM:committed_per_cycle::total      6763550                       # Number of insts commited each cycle
system.switch_cpus_1.commit.COM:count        10155184                       # Number of instructions committed
system.switch_cpus_1.commit.COM:loads         1572087                       # Number of loads committed
system.switch_cpus_1.commit.COM:membars             0                       # Number of memory barriers committed
system.switch_cpus_1.commit.COM:refs          3069319                       # Number of memory references committed
system.switch_cpus_1.commit.COM:swp_count            0                       # Number of s/w prefetches committed
system.switch_cpus_1.commit.branchMispredicts        78658                       # The number of times a branch was mispredicted
system.switch_cpus_1.commit.commitCommittedInsts     10155184                       # The number of committed instructions
system.switch_cpus_1.commit.commitSquashedInsts      2023132                       # The number of squashed insts skipped by commit
system.switch_cpus_1.committedInsts          10000000                       # Number of Instructions Simulated
system.switch_cpus_1.committedInsts_total     10000000                       # Number of Instructions Simulated
system.switch_cpus_1.cpi                     0.707586                       # CPI: Cycles Per Instruction
system.switch_cpus_1.cpi_total               0.707586                       # CPI: Total CPI of All Threads
system.switch_cpus_1.decode.DECODE:BlockedCycles        15898                       # Number of cycles decode is blocked
system.switch_cpus_1.decode.DECODE:BranchMispred           24                       # Number of times decode detected a branch misprediction
system.switch_cpus_1.decode.DECODE:BranchResolved        10514                       # Number of times decode resolved a branch
system.switch_cpus_1.decode.DECODE:DecodedInsts     13111268                       # Number of instructions handled by decode
system.switch_cpus_1.decode.DECODE:IdleCycles      3790476                       # Number of cycles decode is idle
system.switch_cpus_1.decode.DECODE:RunCycles      2956117                       # Number of cycles decode is running
system.switch_cpus_1.decode.DECODE:SquashCycles       309272                       # Number of cycles decode is squashing
system.switch_cpus_1.decode.DECODE:SquashedInsts           17                       # Number of squashed instructions handled by decode
system.switch_cpus_1.decode.DECODE:UnblockCycles         1058                       # Number of cycles decode is unblocking
system.switch_cpus_1.dtb.data_accesses        3544434                       # DTB accesses
system.switch_cpus_1.dtb.data_acv                   0                       # DTB access violations
system.switch_cpus_1.dtb.data_hits            3525634                       # DTB hits
system.switch_cpus_1.dtb.data_misses            18800                       # DTB misses
system.switch_cpus_1.dtb.fetch_accesses             0                       # ITB accesses
system.switch_cpus_1.dtb.fetch_acv                  0                       # ITB acv
system.switch_cpus_1.dtb.fetch_hits                 0                       # ITB hits
system.switch_cpus_1.dtb.fetch_misses               0                       # ITB misses
system.switch_cpus_1.dtb.read_accesses        1830085                       # DTB read accesses
system.switch_cpus_1.dtb.read_acv                   0                       # DTB read access violations
system.switch_cpus_1.dtb.read_hits            1812126                       # DTB read hits
system.switch_cpus_1.dtb.read_misses            17959                       # DTB read misses
system.switch_cpus_1.dtb.write_accesses       1714349                       # DTB write accesses
system.switch_cpus_1.dtb.write_acv                  0                       # DTB write access violations
system.switch_cpus_1.dtb.write_hits           1713508                       # DTB write hits
system.switch_cpus_1.dtb.write_misses             841                       # DTB write misses
system.switch_cpus_1.fetch.Branches           1973077                       # Number of branches that fetch encountered
system.switch_cpus_1.fetch.CacheLines         1897515                       # Number of cache lines fetched
system.switch_cpus_1.fetch.Cycles             4878820                       # Number of cycles fetch has run and was not squashing or blocked
system.switch_cpus_1.fetch.IcacheSquashes        30383                       # Number of outstanding Icache misses that were squashed
system.switch_cpus_1.fetch.Insts             13256389                       # Number of instructions fetch has processed
system.switch_cpus_1.fetch.SquashCycles         94407                       # Number of cycles fetch has spent squashing
system.switch_cpus_1.fetch.branchRate        0.278846                       # Number of branch fetches per cycle
system.switch_cpus_1.fetch.icacheStallCycles      1897515                       # Number of cycles fetch is stalled on an Icache miss
system.switch_cpus_1.fetch.predictedBranches      1755726                       # Number of branches that fetch has predicted taken
system.switch_cpus_1.fetch.rate              1.873467                       # Number of inst fetches per cycle
system.switch_cpus_1.fetch.rateDist::samples      7072822                       # Number of instructions fetched each cycle (Total)
system.switch_cpus_1.fetch.rateDist::mean     1.874272                       # Number of instructions fetched each cycle (Total)
system.switch_cpus_1.fetch.rateDist::stdev     2.777845                       # Number of instructions fetched each cycle (Total)
system.switch_cpus_1.fetch.rateDist::underflows            0      0.00%      0.00% # Number of instructions fetched each cycle (Total)
system.switch_cpus_1.fetch.rateDist::0        4091517     57.85%     57.85% # Number of instructions fetched each cycle (Total)
system.switch_cpus_1.fetch.rateDist::1         887322     12.55%     70.39% # Number of instructions fetched each cycle (Total)
system.switch_cpus_1.fetch.rateDist::2          56912      0.80%     71.20% # Number of instructions fetched each cycle (Total)
system.switch_cpus_1.fetch.rateDist::3          45712      0.65%     71.84% # Number of instructions fetched each cycle (Total)
system.switch_cpus_1.fetch.rateDist::4         285743      4.04%     75.88% # Number of instructions fetched each cycle (Total)
system.switch_cpus_1.fetch.rateDist::5         697212      9.86%     85.74% # Number of instructions fetched each cycle (Total)
system.switch_cpus_1.fetch.rateDist::6          14444      0.20%     85.95% # Number of instructions fetched each cycle (Total)
system.switch_cpus_1.fetch.rateDist::7         549269      7.77%     93.71% # Number of instructions fetched each cycle (Total)
system.switch_cpus_1.fetch.rateDist::8         444691      6.29%    100.00% # Number of instructions fetched each cycle (Total)
system.switch_cpus_1.fetch.rateDist::overflows            0      0.00%    100.00% # Number of instructions fetched each cycle (Total)
system.switch_cpus_1.fetch.rateDist::min_value            0                       # Number of instructions fetched each cycle (Total)
system.switch_cpus_1.fetch.rateDist::max_value            8                       # Number of instructions fetched each cycle (Total)
system.switch_cpus_1.fetch.rateDist::total      7072822                       # Number of instructions fetched each cycle (Total)
system.switch_cpus_1.idleCycles                  3039                       # Total number of cycles that the CPU has spent unscheduled due to idling
system.switch_cpus_1.iew.EXEC:branches        1734127                       # Number of branches executed
system.switch_cpus_1.iew.EXEC:nop              402346                       # number of nop insts executed
system.switch_cpus_1.iew.EXEC:rate           1.625395                       # Inst execution rate
system.switch_cpus_1.iew.EXEC:refs            3544434                       # number of memory reference insts executed
system.switch_cpus_1.iew.EXEC:stores          1714349                       # Number of stores executed
system.switch_cpus_1.iew.EXEC:swp                   0                       # number of swp insts executed
system.switch_cpus_1.iew.WB:consumers         9140638                       # num instructions consuming a value
system.switch_cpus_1.iew.WB:count            11436991                       # cumulative count of insts written-back
system.switch_cpus_1.iew.WB:fanout           0.746112                       # average fanout of values written-back
system.switch_cpus_1.iew.WB:penalized               0                       # number of instrctions required to write to 'other' IQ
system.switch_cpus_1.iew.WB:penalized_rate            0                       # fraction of instructions written-back that wrote to 'other' IQ
system.switch_cpus_1.iew.WB:producers         6819936                       # num instructions producing a value
system.switch_cpus_1.iew.WB:rate             1.616339                       # insts written-back per cycle
system.switch_cpus_1.iew.WB:sent             11458756                       # cumulative count of insts sent to commit
system.switch_cpus_1.iew.branchMispredicts        81778                       # Number of branch mispredicts detected at execute
system.switch_cpus_1.iew.iewBlockCycles           409                       # Number of cycles IEW is blocking
system.switch_cpus_1.iew.iewDispLoadInsts      1910898                       # Number of dispatched load instructions
system.switch_cpus_1.iew.iewDispNonSpecInsts            0                       # Number of dispatched non-speculative instructions
system.switch_cpus_1.iew.iewDispSquashedInsts       147974                       # Number of squashed instructions skipped by dispatch
system.switch_cpus_1.iew.iewDispStoreInsts      1795298                       # Number of dispatched store instructions
system.switch_cpus_1.iew.iewDispatchedInsts     12514228                       # Number of instructions dispatched to IQ
system.switch_cpus_1.iew.iewExecLoadInsts      1830085                       # Number of load instructions executed
system.switch_cpus_1.iew.iewExecSquashedInsts       146347                       # Number of squashed instructions skipped in execute
system.switch_cpus_1.iew.iewExecutedInsts     11501070                       # Number of executed instructions
system.switch_cpus_1.iew.iewIQFullEvents           17                       # Number of times the IQ has become full, causing a stall
system.switch_cpus_1.iew.iewIdleCycles              0                       # Number of cycles IEW is idle
system.switch_cpus_1.iew.iewLSQFullEvents            0                       # Number of times the LSQ has become full, causing a stall
system.switch_cpus_1.iew.iewSquashCycles       309272                       # Number of cycles IEW is squashing
system.switch_cpus_1.iew.iewUnblockCycles           22                       # Number of cycles IEW is unblocking
system.switch_cpus_1.iew.lsq.thread.0.blockedLoads            0                       # Number of blocked loads due to partial load-store forwarding
system.switch_cpus_1.iew.lsq.thread.0.cacheBlocked            9                       # Number of times an access to memory failed due to the cache being blocked
system.switch_cpus_1.iew.lsq.thread.0.forwLoads        82046                       # Number of loads that had data forwarded from stores
system.switch_cpus_1.iew.lsq.thread.0.ignoredResponses         3969                       # Number of memory responses ignored because the instruction is squashed
system.switch_cpus_1.iew.lsq.thread.0.invAddrLoads            0                       # Number of loads ignored due to an invalid address
system.switch_cpus_1.iew.lsq.thread.0.invAddrSwpfs            0                       # Number of software prefetches ignored due to an invalid address
system.switch_cpus_1.iew.lsq.thread.0.memOrderViolation         5643                       # Number of memory ordering violations
system.switch_cpus_1.iew.lsq.thread.0.rescheduledLoads            0                       # Number of loads that were rescheduled
system.switch_cpus_1.iew.lsq.thread.0.squashedLoads       338809                       # Number of loads squashed
system.switch_cpus_1.iew.lsq.thread.0.squashedStores       298064                       # Number of stores squashed
system.switch_cpus_1.iew.memOrderViolationEvents         5643                       # Number of memory order violations
system.switch_cpus_1.iew.predictedNotTakenIncorrect         7888                       # Number of branches that were predicted not taken incorrectly
system.switch_cpus_1.iew.predictedTakenIncorrect        73890                       # Number of branches that were predicted taken incorrectly
system.switch_cpus_1.ipc                     1.413256                       # IPC: Instructions Per Cycle
system.switch_cpus_1.ipc_total               1.413256                       # IPC: Total IPC of All Threads
system.switch_cpus_1.iq.ISSUE:FU_type_0::No_OpClass            0      0.00%      0.00% # Type of FU issued
system.switch_cpus_1.iq.ISSUE:FU_type_0::IntAlu      8058376     69.19%     69.19% # Type of FU issued
system.switch_cpus_1.iq.ISSUE:FU_type_0::IntMult            0      0.00%     69.19% # Type of FU issued
system.switch_cpus_1.iq.ISSUE:FU_type_0::IntDiv            0      0.00%     69.19% # Type of FU issued
system.switch_cpus_1.iq.ISSUE:FU_type_0::FloatAdd            0      0.00%     69.19% # Type of FU issued
system.switch_cpus_1.iq.ISSUE:FU_type_0::FloatCmp            0      0.00%     69.19% # Type of FU issued
system.switch_cpus_1.iq.ISSUE:FU_type_0::FloatCvt            0      0.00%     69.19% # Type of FU issued
system.switch_cpus_1.iq.ISSUE:FU_type_0::FloatMult            0      0.00%     69.19% # Type of FU issued
system.switch_cpus_1.iq.ISSUE:FU_type_0::FloatDiv            0      0.00%     69.19% # Type of FU issued
system.switch_cpus_1.iq.ISSUE:FU_type_0::FloatSqrt            0      0.00%     69.19% # Type of FU issued
system.switch_cpus_1.iq.ISSUE:FU_type_0::MemRead      1846488     15.85%     85.04% # Type of FU issued
system.switch_cpus_1.iq.ISSUE:FU_type_0::MemWrite      1742554     14.96%    100.00% # Type of FU issued
system.switch_cpus_1.iq.ISSUE:FU_type_0::IprAccess            0      0.00%    100.00% # Type of FU issued
system.switch_cpus_1.iq.ISSUE:FU_type_0::InstPrefetch            0      0.00%    100.00% # Type of FU issued
system.switch_cpus_1.iq.ISSUE:FU_type_0::total     11647418                       # Type of FU issued
system.switch_cpus_1.iq.ISSUE:fu_busy_cnt         5504                       # FU busy when requested
system.switch_cpus_1.iq.ISSUE:fu_busy_rate     0.000473                       # FU busy rate (busy events/executed inst)
system.switch_cpus_1.iq.ISSUE:fu_full::No_OpClass            0      0.00%      0.00% # attempts to use FU when none available
system.switch_cpus_1.iq.ISSUE:fu_full::IntAlu         5503     99.98%     99.98% # attempts to use FU when none available
system.switch_cpus_1.iq.ISSUE:fu_full::IntMult            0      0.00%     99.98% # attempts to use FU when none available
system.switch_cpus_1.iq.ISSUE:fu_full::IntDiv            0      0.00%     99.98% # attempts to use FU when none available
system.switch_cpus_1.iq.ISSUE:fu_full::FloatAdd            0      0.00%     99.98% # attempts to use FU when none available
system.switch_cpus_1.iq.ISSUE:fu_full::FloatCmp            0      0.00%     99.98% # attempts to use FU when none available
system.switch_cpus_1.iq.ISSUE:fu_full::FloatCvt            0      0.00%     99.98% # attempts to use FU when none available
system.switch_cpus_1.iq.ISSUE:fu_full::FloatMult            0      0.00%     99.98% # attempts to use FU when none available
system.switch_cpus_1.iq.ISSUE:fu_full::FloatDiv            0      0.00%     99.98% # attempts to use FU when none available
system.switch_cpus_1.iq.ISSUE:fu_full::FloatSqrt            0      0.00%     99.98% # attempts to use FU when none available
system.switch_cpus_1.iq.ISSUE:fu_full::MemRead            1      0.02%    100.00% # attempts to use FU when none available
system.switch_cpus_1.iq.ISSUE:fu_full::MemWrite            0      0.00%    100.00% # attempts to use FU when none available
system.switch_cpus_1.iq.ISSUE:fu_full::IprAccess            0      0.00%    100.00% # attempts to use FU when none available
system.switch_cpus_1.iq.ISSUE:fu_full::InstPrefetch            0      0.00%    100.00% # attempts to use FU when none available
system.switch_cpus_1.iq.ISSUE:issued_per_cycle::samples      7072822                       # Number of insts issued each cycle
system.switch_cpus_1.iq.ISSUE:issued_per_cycle::mean     1.646785                       # Number of insts issued each cycle
system.switch_cpus_1.iq.ISSUE:issued_per_cycle::stdev     1.282830                       # Number of insts issued each cycle
system.switch_cpus_1.iq.ISSUE:issued_per_cycle::underflows            0      0.00%      0.00% # Number of insts issued each cycle
system.switch_cpus_1.iq.ISSUE:issued_per_cycle::0      1193941     16.88%     16.88% # Number of insts issued each cycle
system.switch_cpus_1.iq.ISSUE:issued_per_cycle::1      2460608     34.79%     51.67% # Number of insts issued each cycle
system.switch_cpus_1.iq.ISSUE:issued_per_cycle::2      2299222     32.51%     84.18% # Number of insts issued each cycle
system.switch_cpus_1.iq.ISSUE:issued_per_cycle::3        82443      1.17%     85.34% # Number of insts issued each cycle
system.switch_cpus_1.iq.ISSUE:issued_per_cycle::4       877637     12.41%     97.75% # Number of insts issued each cycle
system.switch_cpus_1.iq.ISSUE:issued_per_cycle::5       128980      1.82%     99.58% # Number of insts issued each cycle
system.switch_cpus_1.iq.ISSUE:issued_per_cycle::6        24842      0.35%     99.93% # Number of insts issued each cycle
system.switch_cpus_1.iq.ISSUE:issued_per_cycle::7         4655      0.07%     99.99% # Number of insts issued each cycle
system.switch_cpus_1.iq.ISSUE:issued_per_cycle::8          494      0.01%    100.00% # Number of insts issued each cycle
system.switch_cpus_1.iq.ISSUE:issued_per_cycle::overflows            0      0.00%    100.00% # Number of insts issued each cycle
system.switch_cpus_1.iq.ISSUE:issued_per_cycle::min_value            0                       # Number of insts issued each cycle
system.switch_cpus_1.iq.ISSUE:issued_per_cycle::max_value            8                       # Number of insts issued each cycle
system.switch_cpus_1.iq.ISSUE:issued_per_cycle::total      7072822                       # Number of insts issued each cycle
system.switch_cpus_1.iq.ISSUE:rate           1.646078                       # Inst issue rate
system.switch_cpus_1.iq.iqInstsAdded         12111882                       # Number of instructions added to the IQ (excludes non-spec)
system.switch_cpus_1.iq.iqInstsIssued        11647418                       # Number of instructions issued
system.switch_cpus_1.iq.iqSquashedInstsExamined      1984906                       # Number of squashed instructions iterated over during squash; mainly for profiling
system.switch_cpus_1.iq.iqSquashedInstsIssued          448                       # Number of squashed instructions issued
system.switch_cpus_1.iq.iqSquashedOperandsExamined       857077                       # Number of squashed operands that are examined and possibly removed from graph
system.switch_cpus_1.itb.data_accesses              0                       # DTB accesses
system.switch_cpus_1.itb.data_acv                   0                       # DTB access violations
system.switch_cpus_1.itb.data_hits                  0                       # DTB hits
system.switch_cpus_1.itb.data_misses                0                       # DTB misses
system.switch_cpus_1.itb.fetch_accesses       1897516                       # ITB accesses
system.switch_cpus_1.itb.fetch_acv                  0                       # ITB acv
system.switch_cpus_1.itb.fetch_hits           1897515                       # ITB hits
system.switch_cpus_1.itb.fetch_misses               1                       # ITB misses
system.switch_cpus_1.itb.read_accesses              0                       # DTB read accesses
system.switch_cpus_1.itb.read_acv                   0                       # DTB read access violations
system.switch_cpus_1.itb.read_hits                  0                       # DTB read hits
system.switch_cpus_1.itb.read_misses                0                       # DTB read misses
system.switch_cpus_1.itb.write_accesses             0                       # DTB write accesses
system.switch_cpus_1.itb.write_acv                  0                       # DTB write access violations
system.switch_cpus_1.itb.write_hits                 0                       # DTB write hits
system.switch_cpus_1.itb.write_misses               0                       # DTB write misses
system.switch_cpus_1.memDep0.conflictingLoads       707022                       # Number of conflicting loads.
system.switch_cpus_1.memDep0.conflictingStores       653961                       # Number of conflicting stores.
system.switch_cpus_1.memDep0.insertedLoads      1910898                       # Number of loads inserted to the mem dependence unit.
system.switch_cpus_1.memDep0.insertedStores      1795298                       # Number of stores inserted to the mem dependence unit.
system.switch_cpus_1.numCycles                7075861                       # number of cpu cycles simulated
system.switch_cpus_1.rename.RENAME:BlockCycles        11275                       # Number of cycles rename is blocking
system.switch_cpus_1.rename.RENAME:CommittedMaps      6961898                       # Number of HB maps that are committed
system.switch_cpus_1.rename.RENAME:IQFullEvents           74                       # Number of times rename has blocked due to IQ full
system.switch_cpus_1.rename.RENAME:IdleCycles      3828265                       # Number of cycles rename is idle
system.switch_cpus_1.rename.RENAME:LSQFullEvents         4203                       # Number of times rename has blocked due to LSQ full
system.switch_cpus_1.rename.RENAME:ROBFullEvents          497                       # Number of times rename has blocked due to ROB full
system.switch_cpus_1.rename.RENAME:RenameLookups     18263228                       # Number of register rename lookups that rename has made
system.switch_cpus_1.rename.RENAME:RenamedInsts     12985521                       # Number of instructions processed by rename
system.switch_cpus_1.rename.RENAME:RenamedOperands      8788536                       # Number of destination operands rename has renamed
system.switch_cpus_1.rename.RENAME:RunCycles      2919278                       # Number of cycles rename is running
system.switch_cpus_1.rename.RENAME:SquashCycles       309272                       # Number of cycles rename is squashing
system.switch_cpus_1.rename.RENAME:UnblockCycles         4731                       # Number of cycles rename is unblocking
system.switch_cpus_1.rename.RENAME:UndoneMaps      1826629                       # Number of HB maps that are undone due to squashing
system.switch_cpus_1.rename.RENAME:serializeStallCycles            0                       # count of cycles rename stalled for serializing inst
system.switch_cpus_1.rename.RENAME:serializingInsts            0                       # count of serializing insts renamed
system.switch_cpus_1.rename.RENAME:skidInsts         9370                       # count of insts added to the skid buffer
system.switch_cpus_1.rename.RENAME:tempSerializingInsts            0                       # count of temporary serializing insts renamed
system.switch_cpus_1.timesIdled                   211                       # Number of times that the entire CPU went into an idle state and unscheduled itself

---------- End Simulation Statistics   ----------
