
---------- Begin Simulation Statistics ----------
host_inst_rate                                 260084                       # Simulator instruction rate (inst/s)
host_mem_usage                                 403464                       # Number of bytes of host memory used
host_seconds                                    76.90                       # Real time elapsed on the host
host_tick_rate                              309554922                       # Simulator tick rate (ticks/s)
sim_freq                                 1000000000000                       # Frequency of simulated ticks
sim_insts                                    20000010                       # Number of instructions simulated
sim_seconds                                  0.023804                       # Number of seconds simulated
sim_ticks                                 23804329000                       # Number of ticks simulated
system.cpu.dcache.ReadReq_accesses            2853204                       # number of ReadReq accesses(hits+misses)
system.cpu.dcache.ReadReq_avg_miss_latency 41899.501272                       # average ReadReq miss latency
system.cpu.dcache.ReadReq_avg_mshr_miss_latency 28374.346059                       # average ReadReq mshr miss latency
system.cpu.dcache.ReadReq_hits                2326063                       # number of ReadReq hits
system.cpu.dcache.ReadReq_miss_latency    22086945000                       # number of ReadReq miss cycles
system.cpu.dcache.ReadReq_miss_rate          0.184754                       # miss rate for ReadReq accesses
system.cpu.dcache.ReadReq_misses               527141                       # number of ReadReq misses
system.cpu.dcache.ReadReq_mshr_hits            213464                       # number of ReadReq MSHR hits
system.cpu.dcache.ReadReq_mshr_miss_latency   8900323000                       # number of ReadReq MSHR miss cycles
system.cpu.dcache.ReadReq_mshr_miss_rate     0.109938                       # mshr miss rate for ReadReq accesses
system.cpu.dcache.ReadReq_mshr_misses          313675                       # number of ReadReq MSHR misses
system.cpu.dcache.WriteReq_accesses           1670212                       # number of WriteReq accesses(hits+misses)
system.cpu.dcache.WriteReq_avg_miss_latency 55565.284630                       # average WriteReq miss latency
system.cpu.dcache.WriteReq_avg_mshr_miss_latency 49335.021954                       # average WriteReq mshr miss latency
system.cpu.dcache.WriteReq_hits               1151053                       # number of WriteReq hits
system.cpu.dcache.WriteReq_miss_latency   28847217603                       # number of WriteReq miss cycles
system.cpu.dcache.WriteReq_miss_rate         0.310834                       # miss rate for WriteReq accesses
system.cpu.dcache.WriteReq_misses              519159                       # number of WriteReq misses
system.cpu.dcache.WriteReq_mshr_hits           310222                       # number of WriteReq MSHR hits
system.cpu.dcache.WriteReq_mshr_miss_latency  10307911482                       # number of WriteReq MSHR miss cycles
system.cpu.dcache.WriteReq_mshr_miss_rate     0.125096                       # mshr miss rate for WriteReq accesses
system.cpu.dcache.WriteReq_mshr_misses         208937                       # number of WriteReq MSHR misses
system.cpu.dcache.avg_blocked_cycles::no_mshrs     no_value                       # average number of cycles each access was blocked
system.cpu.dcache.avg_blocked_cycles::no_targets 39001.267449                       # average number of cycles each access was blocked
system.cpu.dcache.avg_refs                   6.653341                       # Average number of references to valid blocks.
system.cpu.dcache.blocked::no_mshrs                 0                       # number of cycles access was blocked
system.cpu.dcache.blocked::no_targets           72956                       # number of cycles access was blocked
system.cpu.dcache.blocked_cycles::no_mshrs            0                       # number of cycles access was blocked
system.cpu.dcache.blocked_cycles::no_targets   2845376468                       # number of cycles access was blocked
system.cpu.dcache.cache_copies                      0                       # number of cache copies performed
system.cpu.dcache.demand_accesses             4523416                       # number of demand (read+write) accesses
system.cpu.dcache.demand_avg_miss_latency 48680.266274                       # average overall miss latency
system.cpu.dcache.demand_avg_mshr_miss_latency 36754.292825                       # average overall mshr miss latency
system.cpu.dcache.demand_hits                 3477116                       # number of demand (read+write) hits
system.cpu.dcache.demand_miss_latency     50934162603                       # number of demand (read+write) miss cycles
system.cpu.dcache.demand_miss_rate           0.231307                       # miss rate for demand accesses
system.cpu.dcache.demand_misses               1046300                       # number of demand (read+write) misses
system.cpu.dcache.demand_mshr_hits             523686                       # number of demand (read+write) MSHR hits
system.cpu.dcache.demand_mshr_miss_latency  19208234482                       # number of demand (read+write) MSHR miss cycles
system.cpu.dcache.demand_mshr_miss_rate      0.115535                       # mshr miss rate for demand accesses
system.cpu.dcache.demand_mshr_misses           522612                       # number of demand (read+write) MSHR misses
system.cpu.dcache.fast_writes                       0                       # number of fast writes performed
system.cpu.dcache.mshr_cap_events                   0                       # number of times MSHR cap was activated
system.cpu.dcache.no_allocate_misses                0                       # Number of misses that were no-allocate
system.cpu.dcache.occ_%::0                   0.998042                       # Average percentage of cache occupancy
system.cpu.dcache.occ_blocks::0           1021.994890                       # Average occupied blocks per context
system.cpu.dcache.overall_accesses            4523416                       # number of overall (read+write) accesses
system.cpu.dcache.overall_avg_miss_latency 48680.266274                       # average overall miss latency
system.cpu.dcache.overall_avg_mshr_miss_latency 36754.292825                       # average overall mshr miss latency
system.cpu.dcache.overall_avg_mshr_uncacheable_latency     no_value                       # average overall mshr uncacheable latency
system.cpu.dcache.overall_hits                3477116                       # number of overall hits
system.cpu.dcache.overall_miss_latency    50934162603                       # number of overall miss cycles
system.cpu.dcache.overall_miss_rate          0.231307                       # miss rate for overall accesses
system.cpu.dcache.overall_misses              1046300                       # number of overall misses
system.cpu.dcache.overall_mshr_hits            523686                       # number of overall MSHR hits
system.cpu.dcache.overall_mshr_miss_latency  19208234482                       # number of overall MSHR miss cycles
system.cpu.dcache.overall_mshr_miss_rate     0.115535                       # mshr miss rate for overall accesses
system.cpu.dcache.overall_mshr_misses          522612                       # number of overall MSHR misses
system.cpu.dcache.overall_mshr_uncacheable_latency            0                       # number of overall MSHR uncacheable cycles
system.cpu.dcache.overall_mshr_uncacheable_misses            0                       # number of overall MSHR uncacheable misses
system.cpu.dcache.prefetch_accuracy          no_value                       # ratio of good prefetches to total prefetches
system.cpu.dcache.prefetch_hits                     0                       # number of prefetched blocks that were accessed
system.cpu.dcache.replacements                 521588                       # number of replacements
system.cpu.dcache.sampled_refs                 522612                       # Sample count of references to valid blocks.
system.cpu.dcache.soft_prefetch_mshr_full            0                       # number of mshr full events for SW prefetching instrutions
system.cpu.dcache.tagsinuse               1021.994890                       # Cycle average of tags in use
system.cpu.dcache.total_refs                  3477116                       # Total number of references to valid blocks.
system.cpu.dcache.warmup_cycle           500252725000                       # Cycle when the warmup percentage was hit.
system.cpu.dcache.writebacks                   208529                       # number of writebacks
system.cpu.dtb.data_accesses                        2                       # DTB accesses
system.cpu.dtb.data_acv                             0                       # DTB access violations
system.cpu.dtb.data_hits                            2                       # DTB hits
system.cpu.dtb.data_misses                          0                       # DTB misses
system.cpu.dtb.fetch_accesses                       0                       # ITB accesses
system.cpu.dtb.fetch_acv                            0                       # ITB acv
system.cpu.dtb.fetch_hits                           0                       # ITB hits
system.cpu.dtb.fetch_misses                         0                       # ITB misses
system.cpu.dtb.read_accesses                        2                       # DTB read accesses
system.cpu.dtb.read_acv                             0                       # DTB read access violations
system.cpu.dtb.read_hits                            2                       # DTB read hits
system.cpu.dtb.read_misses                          0                       # DTB read misses
system.cpu.dtb.write_accesses                       0                       # DTB write accesses
system.cpu.dtb.write_acv                            0                       # DTB write access violations
system.cpu.dtb.write_hits                           0                       # DTB write hits
system.cpu.dtb.write_misses                         0                       # DTB write misses
system.cpu.icache.ReadReq_accesses           11686188                       # number of ReadReq accesses(hits+misses)
system.cpu.icache.ReadReq_avg_miss_latency 62491.071429                       # average ReadReq miss latency
system.cpu.icache.ReadReq_avg_mshr_miss_latency 59222.222222                       # average ReadReq mshr miss latency
system.cpu.icache.ReadReq_hits               11686132                       # number of ReadReq hits
system.cpu.icache.ReadReq_miss_latency        3499500                       # number of ReadReq miss cycles
system.cpu.icache.ReadReq_miss_rate          0.000005                       # miss rate for ReadReq accesses
system.cpu.icache.ReadReq_misses                   56                       # number of ReadReq misses
system.cpu.icache.ReadReq_mshr_hits                 1                       # number of ReadReq MSHR hits
system.cpu.icache.ReadReq_mshr_miss_latency      3198000                       # number of ReadReq MSHR miss cycles
system.cpu.icache.ReadReq_mshr_miss_rate     0.000005                       # mshr miss rate for ReadReq accesses
system.cpu.icache.ReadReq_mshr_misses              54                       # number of ReadReq MSHR misses
system.cpu.icache.avg_blocked_cycles::no_mshrs     no_value                       # average number of cycles each access was blocked
system.cpu.icache.avg_blocked_cycles::no_targets     no_value                       # average number of cycles each access was blocked
system.cpu.icache.avg_refs               212475.127273                       # Average number of references to valid blocks.
system.cpu.icache.blocked::no_mshrs                 0                       # number of cycles access was blocked
system.cpu.icache.blocked::no_targets               0                       # number of cycles access was blocked
system.cpu.icache.blocked_cycles::no_mshrs            0                       # number of cycles access was blocked
system.cpu.icache.blocked_cycles::no_targets            0                       # number of cycles access was blocked
system.cpu.icache.cache_copies                      0                       # number of cache copies performed
system.cpu.icache.demand_accesses            11686188                       # number of demand (read+write) accesses
system.cpu.icache.demand_avg_miss_latency 62491.071429                       # average overall miss latency
system.cpu.icache.demand_avg_mshr_miss_latency 59222.222222                       # average overall mshr miss latency
system.cpu.icache.demand_hits                11686132                       # number of demand (read+write) hits
system.cpu.icache.demand_miss_latency         3499500                       # number of demand (read+write) miss cycles
system.cpu.icache.demand_miss_rate           0.000005                       # miss rate for demand accesses
system.cpu.icache.demand_misses                    56                       # number of demand (read+write) misses
system.cpu.icache.demand_mshr_hits                  1                       # number of demand (read+write) MSHR hits
system.cpu.icache.demand_mshr_miss_latency      3198000                       # number of demand (read+write) MSHR miss cycles
system.cpu.icache.demand_mshr_miss_rate      0.000005                       # mshr miss rate for demand accesses
system.cpu.icache.demand_mshr_misses               54                       # number of demand (read+write) MSHR misses
system.cpu.icache.fast_writes                       0                       # number of fast writes performed
system.cpu.icache.mshr_cap_events                   0                       # number of times MSHR cap was activated
system.cpu.icache.no_allocate_misses                0                       # Number of misses that were no-allocate
system.cpu.icache.occ_%::0                   0.105800                       # Average percentage of cache occupancy
system.cpu.icache.occ_blocks::0             54.169357                       # Average occupied blocks per context
system.cpu.icache.overall_accesses           11686188                       # number of overall (read+write) accesses
system.cpu.icache.overall_avg_miss_latency 62491.071429                       # average overall miss latency
system.cpu.icache.overall_avg_mshr_miss_latency 59222.222222                       # average overall mshr miss latency
system.cpu.icache.overall_avg_mshr_uncacheable_latency     no_value                       # average overall mshr uncacheable latency
system.cpu.icache.overall_hits               11686132                       # number of overall hits
system.cpu.icache.overall_miss_latency        3499500                       # number of overall miss cycles
system.cpu.icache.overall_miss_rate          0.000005                       # miss rate for overall accesses
system.cpu.icache.overall_misses                   56                       # number of overall misses
system.cpu.icache.overall_mshr_hits                 1                       # number of overall MSHR hits
system.cpu.icache.overall_mshr_miss_latency      3198000                       # number of overall MSHR miss cycles
system.cpu.icache.overall_mshr_miss_rate     0.000005                       # mshr miss rate for overall accesses
system.cpu.icache.overall_mshr_misses              54                       # number of overall MSHR misses
system.cpu.icache.overall_mshr_uncacheable_latency            0                       # number of overall MSHR uncacheable cycles
system.cpu.icache.overall_mshr_uncacheable_misses            0                       # number of overall MSHR uncacheable misses
system.cpu.icache.prefetch_accuracy          no_value                       # ratio of good prefetches to total prefetches
system.cpu.icache.prefetch_hits                     0                       # number of prefetched blocks that were accessed
system.cpu.icache.replacements                      0                       # number of replacements
system.cpu.icache.sampled_refs                     55                       # Sample count of references to valid blocks.
system.cpu.icache.soft_prefetch_mshr_full            0                       # number of mshr full events for SW prefetching instrutions
system.cpu.icache.tagsinuse                 54.169357                       # Cycle average of tags in use
system.cpu.icache.total_refs                 11686132                       # Total number of references to valid blocks.
system.cpu.icache.warmup_cycle                      0                       # Cycle when the warmup percentage was hit.
system.cpu.icache.writebacks                        0                       # number of writebacks
system.cpu.idle_fraction                            0                       # Percentage of idle cycles
system.cpu.itb.data_accesses                        0                       # DTB accesses
system.cpu.itb.data_acv                             0                       # DTB access violations
system.cpu.itb.data_hits                            0                       # DTB hits
system.cpu.itb.data_misses                          0                       # DTB misses
system.cpu.itb.fetch_accesses                       2                       # ITB accesses
system.cpu.itb.fetch_acv                            0                       # ITB acv
system.cpu.itb.fetch_hits                           2                       # ITB hits
system.cpu.itb.fetch_misses                         0                       # ITB misses
system.cpu.itb.read_accesses                        0                       # DTB read accesses
system.cpu.itb.read_acv                             0                       # DTB read access violations
system.cpu.itb.read_hits                            0                       # DTB read hits
system.cpu.itb.read_misses                          0                       # DTB read misses
system.cpu.itb.write_accesses                       0                       # DTB write accesses
system.cpu.itb.write_acv                            0                       # DTB write access violations
system.cpu.itb.write_hits                           0                       # DTB write hits
system.cpu.itb.write_misses                         0                       # DTB write misses
system.cpu.not_idle_fraction                        1                       # Percentage of non-idle cycles
system.cpu.numCycles                                2                       # number of cpu cycles simulated
system.cpu.num_insts                                2                       # Number of instructions executed
system.cpu.num_refs                                 2                       # Number of memory references
system.cpu.workload.PROG:num_syscalls               0                       # Number of system calls
system.l2.HardPFReq_avg_mshr_miss_latency 70988.046270                       # average HardPFReq mshr miss latency
system.l2.HardPFReq_mshr_miss_latency     18447308644                       # number of HardPFReq MSHR miss cycles
system.l2.HardPFReq_mshr_miss_rate                inf                       # mshr miss rate for HardPFReq accesses
system.l2.HardPFReq_mshr_misses                259865                       # number of HardPFReq MSHR misses
system.l2.ReadExReq_accesses                   208937                       # number of ReadExReq accesses(hits+misses)
system.l2.ReadExReq_avg_miss_latency     94397.145971                       # average ReadExReq miss latency
system.l2.ReadExReq_avg_mshr_miss_latency 86527.884628                       # average ReadExReq mshr miss latency
system.l2.ReadExReq_hits                       114439                       # number of ReadExReq hits
system.l2.ReadExReq_miss_latency           8920341500                       # number of ReadExReq miss cycles
system.l2.ReadExReq_miss_rate                0.452280                       # miss rate for ReadExReq accesses
system.l2.ReadExReq_misses                      94498                       # number of ReadExReq misses
system.l2.ReadExReq_mshr_hits                   18847                       # number of ReadExReq MSHR hits
system.l2.ReadExReq_mshr_miss_latency      6545921000                       # number of ReadExReq MSHR miss cycles
system.l2.ReadExReq_mshr_miss_rate           0.362076                       # mshr miss rate for ReadExReq accesses
system.l2.ReadExReq_mshr_misses                 75651                       # number of ReadExReq MSHR misses
system.l2.ReadReq_accesses                     313732                       # number of ReadReq accesses(hits+misses)
system.l2.ReadReq_avg_miss_latency       103430.512910                       # average ReadReq miss latency
system.l2.ReadReq_avg_mshr_miss_latency  113425.010737                       # average ReadReq mshr miss latency
system.l2.ReadReq_hits                         256412                       # number of ReadReq hits
system.l2.ReadReq_miss_latency             5928637000                       # number of ReadReq miss cycles
system.l2.ReadReq_miss_rate                  0.182704                       # miss rate for ReadReq accesses
system.l2.ReadReq_misses                        57320                       # number of ReadReq misses
system.l2.ReadReq_mshr_hits                     22392                       # number of ReadReq MSHR hits
system.l2.ReadReq_mshr_miss_latency        3961368500                       # number of ReadReq MSHR miss cycles
system.l2.ReadReq_mshr_miss_rate             0.111321                       # mshr miss rate for ReadReq accesses
system.l2.ReadReq_mshr_misses                   34925                       # number of ReadReq MSHR misses
system.l2.Writeback_accesses                   208529                       # number of Writeback accesses(hits+misses)
system.l2.Writeback_hits                       208529                       # number of Writeback hits
system.l2.avg_blocked_cycles::no_mshrs       no_value                       # average number of cycles each access was blocked
system.l2.avg_blocked_cycles::no_targets     no_value                       # average number of cycles each access was blocked
system.l2.avg_refs                           1.016391                       # Average number of references to valid blocks.
system.l2.blocked::no_mshrs                         0                       # number of cycles access was blocked
system.l2.blocked::no_targets                       0                       # number of cycles access was blocked
system.l2.blocked_cycles::no_mshrs                  0                       # number of cycles access was blocked
system.l2.blocked_cycles::no_targets                0                       # number of cycles access was blocked
system.l2.cache_copies                              0                       # number of cache copies performed
system.l2.demand_accesses                      522669                       # number of demand (read+write) accesses
system.l2.demand_avg_miss_latency        97807.759949                       # average overall miss latency
system.l2.demand_avg_mshr_miss_latency   95023.237411                       # average overall mshr miss latency
system.l2.demand_hits                          370851                       # number of demand (read+write) hits
system.l2.demand_miss_latency             14848978500                       # number of demand (read+write) miss cycles
system.l2.demand_miss_rate                   0.290467                       # miss rate for demand accesses
system.l2.demand_misses                        151818                       # number of demand (read+write) misses
system.l2.demand_mshr_hits                      41239                       # number of demand (read+write) MSHR hits
system.l2.demand_mshr_miss_latency        10507289500                       # number of demand (read+write) MSHR miss cycles
system.l2.demand_mshr_miss_rate              0.211560                       # mshr miss rate for demand accesses
system.l2.demand_mshr_misses                   110576                       # number of demand (read+write) MSHR misses
system.l2.fast_writes                               0                       # number of fast writes performed
system.l2.mshr_cap_events                           0                       # number of times MSHR cap was activated
system.l2.no_allocate_misses                        0                       # Number of misses that were no-allocate
system.l2.occ_%::0                           0.312499                       # Average percentage of cache occupancy
system.l2.occ_%::1                           0.342900                       # Average percentage of cache occupancy
system.l2.occ_blocks::0                   5119.991597                       # Average occupied blocks per context
system.l2.occ_blocks::1                   5618.074176                       # Average occupied blocks per context
system.l2.overall_accesses                     522669                       # number of overall (read+write) accesses
system.l2.overall_avg_miss_latency       97807.759949                       # average overall miss latency
system.l2.overall_avg_mshr_miss_latency  78162.509398                       # average overall mshr miss latency
system.l2.overall_avg_mshr_uncacheable_latency     no_value                       # average overall mshr uncacheable latency
system.l2.overall_hits                         370851                       # number of overall hits
system.l2.overall_miss_latency            14848978500                       # number of overall miss cycles
system.l2.overall_miss_rate                  0.290467                       # miss rate for overall accesses
system.l2.overall_misses                       151818                       # number of overall misses
system.l2.overall_mshr_hits                     41239                       # number of overall MSHR hits
system.l2.overall_mshr_miss_latency       28954598144                       # number of overall MSHR miss cycles
system.l2.overall_mshr_miss_rate             0.708749                       # mshr miss rate for overall accesses
system.l2.overall_mshr_misses                  370441                       # number of overall MSHR misses
system.l2.overall_mshr_uncacheable_latency            0                       # number of overall MSHR uncacheable cycles
system.l2.overall_mshr_uncacheable_misses            0                       # number of overall MSHR uncacheable misses
system.l2.prefetch_accuracy                  0.486333                       # ratio of good prefetches to total prefetches
system.l2.prefetch_hits                        126381                       # number of prefetched blocks that were accessed
system.l2.prefetcher.num_hwpf_already_in_prefetcher        78889                       # number of hwpf that were already in the prefetch queue
system.l2.prefetcher.num_hwpf_evicted               0                       # number of hwpf removed due to no buffer left
system.l2.prefetcher.num_hwpf_identified       407250                       # number of hwpf identified
system.l2.prefetcher.num_hwpf_issued           265845                       # number of hwpf issued
system.l2.prefetcher.num_hwpf_removed_MSHR_hit        62506                       # number of hwpf removed because MSHR allocated
system.l2.prefetcher.num_hwpf_span_page             0                       # number of hwpf spanning a virtual page
system.l2.prefetcher.num_hwpf_squashed_from_miss            0                       # number of hwpf that got squashed due to a miss aborting calculation time
system.l2.replacements                         354839                       # number of replacements
system.l2.sampled_refs                         365800                       # Sample count of references to valid blocks.
system.l2.soft_prefetch_mshr_full                   0                       # number of mshr full events for SW prefetching instrutions
system.l2.tagsinuse                      10738.065774                       # Cycle average of tags in use
system.l2.total_refs                           371796                       # Total number of references to valid blocks.
system.l2.warmup_cycle                              0                       # Cycle when the warmup percentage was hit.
system.l2.writebacks                           202708                       # number of writebacks
system.switch_cpus.dtb.data_accesses          2247102                       # DTB accesses
system.switch_cpus.dtb.data_acv                     0                       # DTB access violations
system.switch_cpus.dtb.data_hits              2245642                       # DTB hits
system.switch_cpus.dtb.data_misses               1460                       # DTB misses
system.switch_cpus.dtb.fetch_accesses               0                       # ITB accesses
system.switch_cpus.dtb.fetch_acv                    0                       # ITB acv
system.switch_cpus.dtb.fetch_hits                   0                       # ITB hits
system.switch_cpus.dtb.fetch_misses                 0                       # ITB misses
system.switch_cpus.dtb.read_accesses          1411189                       # DTB read accesses
system.switch_cpus.dtb.read_acv                     0                       # DTB read access violations
system.switch_cpus.dtb.read_hits              1410550                       # DTB read hits
system.switch_cpus.dtb.read_misses                639                       # DTB read misses
system.switch_cpus.dtb.write_accesses          835913                       # DTB write accesses
system.switch_cpus.dtb.write_acv                    0                       # DTB write access violations
system.switch_cpus.dtb.write_hits              835092                       # DTB write hits
system.switch_cpus.dtb.write_misses               821                       # DTB write misses
system.switch_cpus.idle_fraction                    1                       # Percentage of idle cycles
system.switch_cpus.itb.data_accesses                0                       # DTB accesses
system.switch_cpus.itb.data_acv                     0                       # DTB access violations
system.switch_cpus.itb.data_hits                    0                       # DTB hits
system.switch_cpus.itb.data_misses                  0                       # DTB misses
system.switch_cpus.itb.fetch_accesses        10001463                       # ITB accesses
system.switch_cpus.itb.fetch_acv                    0                       # ITB acv
system.switch_cpus.itb.fetch_hits            10001461                       # ITB hits
system.switch_cpus.itb.fetch_misses                 2                       # ITB misses
system.switch_cpus.itb.read_accesses                0                       # DTB read accesses
system.switch_cpus.itb.read_acv                     0                       # DTB read access violations
system.switch_cpus.itb.read_hits                    0                       # DTB read hits
system.switch_cpus.itb.read_misses                  0                       # DTB read misses
system.switch_cpus.itb.write_accesses               0                       # DTB write accesses
system.switch_cpus.itb.write_acv                    0                       # DTB write access violations
system.switch_cpus.itb.write_hits                   0                       # DTB write hits
system.switch_cpus.itb.write_misses                 0                       # DTB write misses
system.switch_cpus.not_idle_fraction                0                       # Percentage of non-idle cycles
system.switch_cpus.numCycles                 33543534                       # number of cpu cycles simulated
system.switch_cpus.num_insts                 10000001                       # Number of instructions executed
system.switch_cpus.num_refs                   2768258                       # Number of memory references
system.switch_cpus_1.BPredUnit.BTBCorrect            0                       # Number of correct BTB predictions (this stat may not work properly.
system.switch_cpus_1.BPredUnit.BTBHits          54207                       # Number of BTB hits
system.switch_cpus_1.BPredUnit.BTBLookups        55819                       # Number of BTB lookups
system.switch_cpus_1.BPredUnit.RASInCorrect            0                       # Number of incorrect RAS predictions.
system.switch_cpus_1.BPredUnit.condIncorrect          538                       # Number of conditional branches incorrect
system.switch_cpus_1.BPredUnit.condPredicted        55629                       # Number of conditional branches predicted
system.switch_cpus_1.BPredUnit.lookups          55945                       # Number of BP lookups
system.switch_cpus_1.BPredUnit.usedRAS              0                       # Number of times the RAS was used to get a target.
system.switch_cpus_1.commit.COM:branches        53216                       # Number of branches committed
system.switch_cpus_1.commit.COM:bw_lim_events       995501                       # number cycles where commit BW limit reached
system.switch_cpus_1.commit.COM:bw_limited            0                       # number of insts not committed due to BW limits
system.switch_cpus_1.commit.COM:committed_per_cycle::samples     11875224                       # Number of insts commited each cycle
system.switch_cpus_1.commit.COM:committed_per_cycle::mean     0.842116                       # Number of insts commited each cycle
system.switch_cpus_1.commit.COM:committed_per_cycle::stdev     2.332036                       # Number of insts commited each cycle
system.switch_cpus_1.commit.COM:committed_per_cycle::underflows            0      0.00%      0.00% # Number of insts commited each cycle
system.switch_cpus_1.commit.COM:committed_per_cycle::0     10284058     86.60%     86.60% # Number of insts commited each cycle
system.switch_cpus_1.commit.COM:committed_per_cycle::1       132196      1.11%     87.71% # Number of insts commited each cycle
system.switch_cpus_1.commit.COM:committed_per_cycle::2       115285      0.97%     88.68% # Number of insts commited each cycle
system.switch_cpus_1.commit.COM:committed_per_cycle::3        78422      0.66%     89.35% # Number of insts commited each cycle
system.switch_cpus_1.commit.COM:committed_per_cycle::4        80230      0.68%     90.02% # Number of insts commited each cycle
system.switch_cpus_1.commit.COM:committed_per_cycle::5        71649      0.60%     90.62% # Number of insts commited each cycle
system.switch_cpus_1.commit.COM:committed_per_cycle::6        66065      0.56%     91.18% # Number of insts commited each cycle
system.switch_cpus_1.commit.COM:committed_per_cycle::7        51818      0.44%     91.62% # Number of insts commited each cycle
system.switch_cpus_1.commit.COM:committed_per_cycle::8       995501      8.38%    100.00% # Number of insts commited each cycle
system.switch_cpus_1.commit.COM:committed_per_cycle::overflows            0      0.00%    100.00% # Number of insts commited each cycle
system.switch_cpus_1.commit.COM:committed_per_cycle::min_value            0                       # Number of insts commited each cycle
system.switch_cpus_1.commit.COM:committed_per_cycle::max_value            8                       # Number of insts commited each cycle
system.switch_cpus_1.commit.COM:committed_per_cycle::total     11875224                       # Number of insts commited each cycle
system.switch_cpus_1.commit.COM:count        10000321                       # Number of instructions committed
system.switch_cpus_1.commit.COM:loads         1723297                       # Number of loads committed
system.switch_cpus_1.commit.COM:membars             0                       # Number of memory barriers committed
system.switch_cpus_1.commit.COM:refs          2766884                       # Number of memory references committed
system.switch_cpus_1.commit.COM:swp_count            0                       # Number of s/w prefetches committed
system.switch_cpus_1.commit.branchMispredicts          537                       # The number of times a branch was mispredicted
system.switch_cpus_1.commit.commitCommittedInsts     10000321                       # The number of committed instructions
system.switch_cpus_1.commit.commitSquashedInsts      2363311                       # The number of squashed insts skipped by commit
system.switch_cpus_1.committedInsts          10000007                       # Number of Instructions Simulated
system.switch_cpus_1.committedInsts_total     10000007                       # Number of Instructions Simulated
system.switch_cpus_1.cpi                     1.406511                       # CPI: Cycles Per Instruction
system.switch_cpus_1.cpi_total               1.406511                       # CPI: Total CPI of All Threads
system.switch_cpus_1.decode.DECODE:BlockedCycles      5998668                       # Number of cycles decode is blocked
system.switch_cpus_1.decode.DECODE:BranchMispred            1                       # Number of times decode detected a branch misprediction
system.switch_cpus_1.decode.DECODE:BranchResolved          306                       # Number of times decode resolved a branch
system.switch_cpus_1.decode.DECODE:DecodedInsts     16625130                       # Number of instructions handled by decode
system.switch_cpus_1.decode.DECODE:IdleCycles      3582582                       # Number of cycles decode is idle
system.switch_cpus_1.decode.DECODE:RunCycles      2232811                       # Number of cycles decode is running
system.switch_cpus_1.decode.DECODE:SquashCycles       481316                       # Number of cycles decode is squashing
system.switch_cpus_1.decode.DECODE:SquashedInsts            8                       # Number of squashed instructions handled by decode
system.switch_cpus_1.decode.DECODE:UnblockCycles        61162                       # Number of cycles decode is unblocking
system.switch_cpus_1.dtb.data_accesses        3315399                       # DTB accesses
system.switch_cpus_1.dtb.data_acv                   0                       # DTB access violations
system.switch_cpus_1.dtb.data_hits            3310485                       # DTB hits
system.switch_cpus_1.dtb.data_misses             4914                       # DTB misses
system.switch_cpus_1.dtb.fetch_accesses             0                       # ITB accesses
system.switch_cpus_1.dtb.fetch_acv                  0                       # ITB acv
system.switch_cpus_1.dtb.fetch_hits                 0                       # ITB hits
system.switch_cpus_1.dtb.fetch_misses               0                       # ITB misses
system.switch_cpus_1.dtb.read_accesses        2451561                       # DTB read accesses
system.switch_cpus_1.dtb.read_acv                   0                       # DTB read access violations
system.switch_cpus_1.dtb.read_hits            2449467                       # DTB read hits
system.switch_cpus_1.dtb.read_misses             2094                       # DTB read misses
system.switch_cpus_1.dtb.write_accesses        863838                       # DTB write accesses
system.switch_cpus_1.dtb.write_acv                  0                       # DTB write access violations
system.switch_cpus_1.dtb.write_hits            861018                       # DTB write hits
system.switch_cpus_1.dtb.write_misses            2820                       # DTB write misses
system.switch_cpus_1.fetch.Branches             55945                       # Number of branches that fetch encountered
system.switch_cpus_1.fetch.CacheLines         1684725                       # Number of cache lines fetched
system.switch_cpus_1.fetch.Cycles             3986670                       # Number of cycles fetch has run and was not squashing or blocked
system.switch_cpus_1.fetch.IcacheSquashes        11919                       # Number of outstanding Icache misses that were squashed
system.switch_cpus_1.fetch.Insts             16687243                       # Number of instructions fetch has processed
system.switch_cpus_1.fetch.SquashCycles        420074                       # Number of cycles fetch has spent squashing
system.switch_cpus_1.fetch.branchRate        0.003978                       # Number of branch fetches per cycle
system.switch_cpus_1.fetch.icacheStallCycles      1684725                       # Number of cycles fetch is stalled on an Icache miss
system.switch_cpus_1.fetch.predictedBranches        54207                       # Number of branches that fetch has predicted taken
system.switch_cpus_1.fetch.rate              1.186427                       # Number of inst fetches per cycle
system.switch_cpus_1.fetch.rateDist::samples     12356540                       # Number of instructions fetched each cycle (Total)
system.switch_cpus_1.fetch.rateDist::mean     1.350479                       # Number of instructions fetched each cycle (Total)
system.switch_cpus_1.fetch.rateDist::stdev     2.919717                       # Number of instructions fetched each cycle (Total)
system.switch_cpus_1.fetch.rateDist::underflows            0      0.00%      0.00% # Number of instructions fetched each cycle (Total)
system.switch_cpus_1.fetch.rateDist::0       10054599     81.37%     81.37% # Number of instructions fetched each cycle (Total)
system.switch_cpus_1.fetch.rateDist::1          64088      0.52%     81.89% # Number of instructions fetched each cycle (Total)
system.switch_cpus_1.fetch.rateDist::2          33366      0.27%     82.16% # Number of instructions fetched each cycle (Total)
system.switch_cpus_1.fetch.rateDist::3          65384      0.53%     82.69% # Number of instructions fetched each cycle (Total)
system.switch_cpus_1.fetch.rateDist::4          75907      0.61%     83.30% # Number of instructions fetched each cycle (Total)
system.switch_cpus_1.fetch.rateDist::5          60254      0.49%     83.79% # Number of instructions fetched each cycle (Total)
system.switch_cpus_1.fetch.rateDist::6          99727      0.81%     84.60% # Number of instructions fetched each cycle (Total)
system.switch_cpus_1.fetch.rateDist::7          68709      0.56%     85.15% # Number of instructions fetched each cycle (Total)
system.switch_cpus_1.fetch.rateDist::8        1834506     14.85%    100.00% # Number of instructions fetched each cycle (Total)
system.switch_cpus_1.fetch.rateDist::overflows            0      0.00%    100.00% # Number of instructions fetched each cycle (Total)
system.switch_cpus_1.fetch.rateDist::min_value            0                       # Number of instructions fetched each cycle (Total)
system.switch_cpus_1.fetch.rateDist::max_value            8                       # Number of instructions fetched each cycle (Total)
system.switch_cpus_1.fetch.rateDist::total     12356540                       # Number of instructions fetched each cycle (Total)
system.switch_cpus_1.idleCycles               1708583                       # Total number of cycles that the CPU has spent unscheduled due to idling
system.switch_cpus_1.iew.EXEC:branches          54561                       # Number of branches executed
system.switch_cpus_1.iew.EXEC:nop                 326                       # number of nop insts executed
system.switch_cpus_1.iew.EXEC:rate           0.850519                       # Inst execution rate
system.switch_cpus_1.iew.EXEC:refs            3902124                       # number of memory reference insts executed
system.switch_cpus_1.iew.EXEC:stores          1081485                       # Number of stores executed
system.switch_cpus_1.iew.EXEC:swp                   0                       # number of swp insts executed
system.switch_cpus_1.iew.WB:consumers         6409597                       # num instructions consuming a value
system.switch_cpus_1.iew.WB:count            10946604                       # cumulative count of insts written-back
system.switch_cpus_1.iew.WB:fanout           0.831312                       # average fanout of values written-back
system.switch_cpus_1.iew.WB:penalized               0                       # number of instrctions required to write to 'other' IQ
system.switch_cpus_1.iew.WB:penalized_rate            0                       # fraction of instructions written-back that wrote to 'other' IQ
system.switch_cpus_1.iew.WB:producers         5328376                       # num instructions producing a value
system.switch_cpus_1.iew.WB:rate             0.778280                       # insts written-back per cycle
system.switch_cpus_1.iew.WB:sent             10951595                       # cumulative count of insts sent to commit
system.switch_cpus_1.iew.branchMispredicts          539                       # Number of branch mispredicts detected at execute
system.switch_cpus_1.iew.iewBlockCycles       1427897                       # Number of cycles IEW is blocking
system.switch_cpus_1.iew.iewDispLoadInsts      2886332                       # Number of dispatched load instructions
system.switch_cpus_1.iew.iewDispNonSpecInsts            0                       # Number of dispatched non-speculative instructions
system.switch_cpus_1.iew.iewDispSquashedInsts       601409                       # Number of squashed instructions skipped by dispatch
system.switch_cpus_1.iew.iewDispStoreInsts      1085314                       # Number of dispatched store instructions
system.switch_cpus_1.iew.iewDispatchedInsts     12377523                       # Number of instructions dispatched to IQ
system.switch_cpus_1.iew.iewExecLoadInsts      2820639                       # Number of load instructions executed
system.switch_cpus_1.iew.iewExecSquashedInsts       306603                       # Number of squashed instructions skipped in execute
system.switch_cpus_1.iew.iewExecutedInsts     11962661                       # Number of executed instructions
system.switch_cpus_1.iew.iewIQFullEvents        35590                       # Number of times the IQ has become full, causing a stall
system.switch_cpus_1.iew.iewIdleCycles              0                       # Number of cycles IEW is idle
system.switch_cpus_1.iew.iewLSQFullEvents         1936                       # Number of times the LSQ has become full, causing a stall
system.switch_cpus_1.iew.iewSquashCycles       481316                       # Number of cycles IEW is squashing
system.switch_cpus_1.iew.iewUnblockCycles        72764                       # Number of cycles IEW is unblocking
system.switch_cpus_1.iew.lsq.thread.0.blockedLoads            0                       # Number of blocked loads due to partial load-store forwarding
system.switch_cpus_1.iew.lsq.thread.0.cacheBlocked      1057152                       # Number of times an access to memory failed due to the cache being blocked
system.switch_cpus_1.iew.lsq.thread.0.forwLoads            0                       # Number of loads that had data forwarded from stores
system.switch_cpus_1.iew.lsq.thread.0.ignoredResponses            0                       # Number of memory responses ignored because the instruction is squashed
system.switch_cpus_1.iew.lsq.thread.0.invAddrLoads            0                       # Number of loads ignored due to an invalid address
system.switch_cpus_1.iew.lsq.thread.0.invAddrSwpfs            0                       # Number of software prefetches ignored due to an invalid address
system.switch_cpus_1.iew.lsq.thread.0.memOrderViolation            0                       # Number of memory ordering violations
system.switch_cpus_1.iew.lsq.thread.0.rescheduledLoads            0                       # Number of loads that were rescheduled
system.switch_cpus_1.iew.lsq.thread.0.squashedLoads      1163010                       # Number of loads squashed
system.switch_cpus_1.iew.lsq.thread.0.squashedStores        41709                       # Number of stores squashed
system.switch_cpus_1.iew.memOrderViolationEvents            0                       # Number of memory order violations
system.switch_cpus_1.iew.predictedNotTakenIncorrect           66                       # Number of branches that were predicted not taken incorrectly
system.switch_cpus_1.iew.predictedTakenIncorrect          473                       # Number of branches that were predicted taken incorrectly
system.switch_cpus_1.ipc                     0.710979                       # IPC: Instructions Per Cycle
system.switch_cpus_1.ipc_total               0.710979                       # IPC: Total IPC of All Threads
system.switch_cpus_1.iq.ISSUE:FU_type_0::No_OpClass            0      0.00%      0.00% # Type of FU issued
system.switch_cpus_1.iq.ISSUE:FU_type_0::IntAlu      3039418     24.77%     24.77% # Type of FU issued
system.switch_cpus_1.iq.ISSUE:FU_type_0::IntMult          376      0.00%     24.78% # Type of FU issued
system.switch_cpus_1.iq.ISSUE:FU_type_0::IntDiv            0      0.00%     24.78% # Type of FU issued
system.switch_cpus_1.iq.ISSUE:FU_type_0::FloatAdd      2665810     21.73%     46.50% # Type of FU issued
system.switch_cpus_1.iq.ISSUE:FU_type_0::FloatCmp            0      0.00%     46.50% # Type of FU issued
system.switch_cpus_1.iq.ISSUE:FU_type_0::FloatCvt            0      0.00%     46.50% # Type of FU issued
system.switch_cpus_1.iq.ISSUE:FU_type_0::FloatMult      2380428     19.40%     65.90% # Type of FU issued
system.switch_cpus_1.iq.ISSUE:FU_type_0::FloatDiv       255763      2.08%     67.99% # Type of FU issued
system.switch_cpus_1.iq.ISSUE:FU_type_0::FloatSqrt            0      0.00%     67.99% # Type of FU issued
system.switch_cpus_1.iq.ISSUE:FU_type_0::MemRead      2845256     23.19%     91.18% # Type of FU issued
system.switch_cpus_1.iq.ISSUE:FU_type_0::MemWrite      1082217      8.82%    100.00% # Type of FU issued
system.switch_cpus_1.iq.ISSUE:FU_type_0::IprAccess            0      0.00%    100.00% # Type of FU issued
system.switch_cpus_1.iq.ISSUE:FU_type_0::InstPrefetch            0      0.00%    100.00% # Type of FU issued
system.switch_cpus_1.iq.ISSUE:FU_type_0::total     12269268                       # Type of FU issued
system.switch_cpus_1.iq.ISSUE:fu_busy_cnt      1071692                       # FU busy when requested
system.switch_cpus_1.iq.ISSUE:fu_busy_rate     0.087348                       # FU busy rate (busy events/executed inst)
system.switch_cpus_1.iq.ISSUE:fu_full::No_OpClass            0      0.00%      0.00% # attempts to use FU when none available
system.switch_cpus_1.iq.ISSUE:fu_full::IntAlu            7      0.00%      0.00% # attempts to use FU when none available
system.switch_cpus_1.iq.ISSUE:fu_full::IntMult            0      0.00%      0.00% # attempts to use FU when none available
system.switch_cpus_1.iq.ISSUE:fu_full::IntDiv            0      0.00%      0.00% # attempts to use FU when none available
system.switch_cpus_1.iq.ISSUE:fu_full::FloatAdd         4086      0.38%      0.38% # attempts to use FU when none available
system.switch_cpus_1.iq.ISSUE:fu_full::FloatCmp            0      0.00%      0.38% # attempts to use FU when none available
system.switch_cpus_1.iq.ISSUE:fu_full::FloatCvt            0      0.00%      0.38% # attempts to use FU when none available
system.switch_cpus_1.iq.ISSUE:fu_full::FloatMult       764112     71.30%     71.68% # attempts to use FU when none available
system.switch_cpus_1.iq.ISSUE:fu_full::FloatDiv       297299     27.74%     99.42% # attempts to use FU when none available
system.switch_cpus_1.iq.ISSUE:fu_full::FloatSqrt            0      0.00%     99.42% # attempts to use FU when none available
system.switch_cpus_1.iq.ISSUE:fu_full::MemRead         5644      0.53%     99.95% # attempts to use FU when none available
system.switch_cpus_1.iq.ISSUE:fu_full::MemWrite          544      0.05%    100.00% # attempts to use FU when none available
system.switch_cpus_1.iq.ISSUE:fu_full::IprAccess            0      0.00%    100.00% # attempts to use FU when none available
system.switch_cpus_1.iq.ISSUE:fu_full::InstPrefetch            0      0.00%    100.00% # attempts to use FU when none available
system.switch_cpus_1.iq.ISSUE:issued_per_cycle::samples     12356540                       # Number of insts issued each cycle
system.switch_cpus_1.iq.ISSUE:issued_per_cycle::mean     0.992937                       # Number of insts issued each cycle
system.switch_cpus_1.iq.ISSUE:issued_per_cycle::stdev     1.500638                       # Number of insts issued each cycle
system.switch_cpus_1.iq.ISSUE:issued_per_cycle::underflows            0      0.00%      0.00% # Number of insts issued each cycle
system.switch_cpus_1.iq.ISSUE:issued_per_cycle::0      7083381     57.32%     57.32% # Number of insts issued each cycle
system.switch_cpus_1.iq.ISSUE:issued_per_cycle::1      1972530     15.96%     73.29% # Number of insts issued each cycle
system.switch_cpus_1.iq.ISSUE:issued_per_cycle::2      1461403     11.83%     85.12% # Number of insts issued each cycle
system.switch_cpus_1.iq.ISSUE:issued_per_cycle::3       834368      6.75%     91.87% # Number of insts issued each cycle
system.switch_cpus_1.iq.ISSUE:issued_per_cycle::4       502292      4.06%     95.93% # Number of insts issued each cycle
system.switch_cpus_1.iq.ISSUE:issued_per_cycle::5       261615      2.12%     98.05% # Number of insts issued each cycle
system.switch_cpus_1.iq.ISSUE:issued_per_cycle::6       146730      1.19%     99.24% # Number of insts issued each cycle
system.switch_cpus_1.iq.ISSUE:issued_per_cycle::7        80563      0.65%     99.89% # Number of insts issued each cycle
system.switch_cpus_1.iq.ISSUE:issued_per_cycle::8        13658      0.11%    100.00% # Number of insts issued each cycle
system.switch_cpus_1.iq.ISSUE:issued_per_cycle::overflows            0      0.00%    100.00% # Number of insts issued each cycle
system.switch_cpus_1.iq.ISSUE:issued_per_cycle::min_value            0                       # Number of insts issued each cycle
system.switch_cpus_1.iq.ISSUE:issued_per_cycle::max_value            8                       # Number of insts issued each cycle
system.switch_cpus_1.iq.ISSUE:issued_per_cycle::total     12356540                       # Number of insts issued each cycle
system.switch_cpus_1.iq.ISSUE:rate           0.872319                       # Inst issue rate
system.switch_cpus_1.iq.iqInstsAdded         12377197                       # Number of instructions added to the IQ (excludes non-spec)
system.switch_cpus_1.iq.iqInstsIssued        12269268                       # Number of instructions issued
system.switch_cpus_1.iq.iqSquashedInstsExamined      2376969                       # Number of squashed instructions iterated over during squash; mainly for profiling
system.switch_cpus_1.iq.iqSquashedInstsIssued        43939                       # Number of squashed instructions issued
system.switch_cpus_1.iq.iqSquashedOperandsExamined      1204312                       # Number of squashed operands that are examined and possibly removed from graph
system.switch_cpus_1.itb.data_accesses              0                       # DTB accesses
system.switch_cpus_1.itb.data_acv                   0                       # DTB access violations
system.switch_cpus_1.itb.data_hits                  0                       # DTB hits
system.switch_cpus_1.itb.data_misses                0                       # DTB misses
system.switch_cpus_1.itb.fetch_accesses       1684729                       # ITB accesses
system.switch_cpus_1.itb.fetch_acv                  0                       # ITB acv
system.switch_cpus_1.itb.fetch_hits           1684725                       # ITB hits
system.switch_cpus_1.itb.fetch_misses               4                       # ITB misses
system.switch_cpus_1.itb.read_accesses              0                       # DTB read accesses
system.switch_cpus_1.itb.read_acv                   0                       # DTB read access violations
system.switch_cpus_1.itb.read_hits                  0                       # DTB read hits
system.switch_cpus_1.itb.read_misses                0                       # DTB read misses
system.switch_cpus_1.itb.write_accesses             0                       # DTB write accesses
system.switch_cpus_1.itb.write_acv                  0                       # DTB write access violations
system.switch_cpus_1.itb.write_hits                 0                       # DTB write hits
system.switch_cpus_1.itb.write_misses               0                       # DTB write misses
system.switch_cpus_1.memDep0.conflictingLoads            0                       # Number of conflicting loads.
system.switch_cpus_1.memDep0.conflictingStores            0                       # Number of conflicting stores.
system.switch_cpus_1.memDep0.insertedLoads      2886332                       # Number of loads inserted to the mem dependence unit.
system.switch_cpus_1.memDep0.insertedStores      1085314                       # Number of stores inserted to the mem dependence unit.
system.switch_cpus_1.numCycles               14065123                       # number of cpu cycles simulated
system.switch_cpus_1.rename.RENAME:BlockCycles      4177853                       # Number of cycles rename is blocking
system.switch_cpus_1.rename.RENAME:CommittedMaps      8590499                       # Number of HB maps that are committed
system.switch_cpus_1.rename.RENAME:IQFullEvents       221387                       # Number of times rename has blocked due to IQ full
system.switch_cpus_1.rename.RENAME:IdleCycles      4055151                       # Number of cycles rename is idle
system.switch_cpus_1.rename.RENAME:LSQFullEvents      1766343                       # Number of times rename has blocked due to LSQ full
system.switch_cpus_1.rename.RENAME:ROBFullEvents        19109                       # Number of times rename has blocked due to ROB full
system.switch_cpus_1.rename.RENAME:RenameLookups     22728790                       # Number of register rename lookups that rename has made
system.switch_cpus_1.rename.RENAME:RenamedInsts     14496626                       # Number of instructions processed by rename
system.switch_cpus_1.rename.RENAME:RenamedOperands     12769180                       # Number of destination operands rename has renamed
system.switch_cpus_1.rename.RENAME:RunCycles      1745032                       # Number of cycles rename is running
system.switch_cpus_1.rename.RENAME:SquashCycles       481316                       # Number of cycles rename is squashing
system.switch_cpus_1.rename.RENAME:UnblockCycles      1897187                       # Number of cycles rename is unblocking
system.switch_cpus_1.rename.RENAME:UndoneMaps      4178540                       # Number of HB maps that are undone due to squashing
system.switch_cpus_1.rename.RENAME:serializeStallCycles            0                       # count of cycles rename stalled for serializing inst
system.switch_cpus_1.rename.RENAME:serializingInsts            0                       # count of serializing insts renamed
system.switch_cpus_1.rename.RENAME:skidInsts      6169197                       # count of insts added to the skid buffer
system.switch_cpus_1.rename.RENAME:tempSerializingInsts            0                       # count of temporary serializing insts renamed
system.switch_cpus_1.timesIdled                 24270                       # Number of times that the entire CPU went into an idle state and unscheduled itself

---------- End Simulation Statistics   ----------
