
---------- Begin Simulation Statistics ----------
host_inst_rate                                 124961                       # Simulator instruction rate (inst/s)
host_mem_usage                                 333812                       # Number of bytes of host memory used
host_seconds                                   160.05                       # Real time elapsed on the host
host_tick_rate                              634686370                       # Simulator tick rate (ticks/s)
sim_freq                                 1000000000000                       # Frequency of simulated ticks
sim_insts                                    20000003                       # Number of instructions simulated
sim_seconds                                  0.101582                       # Number of seconds simulated
sim_ticks                                101581511000                       # Number of ticks simulated
system.cpu.dcache.ReadReq_accesses            5609520                       # number of ReadReq accesses(hits+misses)
system.cpu.dcache.ReadReq_avg_miss_latency 31261.077484                       # average ReadReq miss latency
system.cpu.dcache.ReadReq_avg_mshr_miss_latency 28020.476806                       # average ReadReq mshr miss latency
system.cpu.dcache.ReadReq_hits                2084216                       # number of ReadReq hits
system.cpu.dcache.ReadReq_miss_latency   110204801500                       # number of ReadReq miss cycles
system.cpu.dcache.ReadReq_miss_rate          0.628450                       # miss rate for ReadReq accesses
system.cpu.dcache.ReadReq_misses              3525304                       # number of ReadReq misses
system.cpu.dcache.ReadReq_mshr_hits              4247                       # number of ReadReq MSHR hits
system.cpu.dcache.ReadReq_mshr_miss_latency  98661696000                       # number of ReadReq MSHR miss cycles
system.cpu.dcache.ReadReq_mshr_miss_rate     0.627693                       # mshr miss rate for ReadReq accesses
system.cpu.dcache.ReadReq_mshr_misses         3521057                       # number of ReadReq MSHR misses
system.cpu.dcache.WriteReq_accesses            293301                       # number of WriteReq accesses(hits+misses)
system.cpu.dcache.WriteReq_avg_miss_latency 92675.937237                       # average WriteReq miss latency
system.cpu.dcache.WriteReq_avg_mshr_miss_latency 88895.477492                       # average WriteReq mshr miss latency
system.cpu.dcache.WriteReq_hits                285446                       # number of WriteReq hits
system.cpu.dcache.WriteReq_miss_latency     727969487                       # number of WriteReq miss cycles
system.cpu.dcache.WriteReq_miss_rate         0.026781                       # miss rate for WriteReq accesses
system.cpu.dcache.WriteReq_misses                7855                       # number of WriteReq misses
system.cpu.dcache.WriteReq_mshr_hits             2990                       # number of WriteReq MSHR hits
system.cpu.dcache.WriteReq_mshr_miss_latency    432476498                       # number of WriteReq MSHR miss cycles
system.cpu.dcache.WriteReq_mshr_miss_rate     0.016587                       # mshr miss rate for WriteReq accesses
system.cpu.dcache.WriteReq_mshr_misses           4865                       # number of WriteReq MSHR misses
system.cpu.dcache.avg_blocked_cycles::no_mshrs 16408.909091                       # average number of cycles each access was blocked
system.cpu.dcache.avg_blocked_cycles::no_targets 81660.840074                       # average number of cycles each access was blocked
system.cpu.dcache.avg_refs                   0.672551                       # Average number of references to valid blocks.
system.cpu.dcache.blocked::no_mshrs                11                       # number of cycles access was blocked
system.cpu.dcache.blocked::no_targets             544                       # number of cycles access was blocked
system.cpu.dcache.blocked_cycles::no_mshrs       180498                       # number of cycles access was blocked
system.cpu.dcache.blocked_cycles::no_targets     44423497                       # number of cycles access was blocked
system.cpu.dcache.cache_copies                      0                       # number of cache copies performed
system.cpu.dcache.demand_accesses             5902821                       # number of demand (read+write) accesses
system.cpu.dcache.demand_avg_miss_latency 31397.616407                       # average overall miss latency
system.cpu.dcache.demand_avg_mshr_miss_latency 28104.470972                       # average overall mshr miss latency
system.cpu.dcache.demand_hits                 2369662                       # number of demand (read+write) hits
system.cpu.dcache.demand_miss_latency    110932770987                       # number of demand (read+write) miss cycles
system.cpu.dcache.demand_miss_rate           0.598554                       # miss rate for demand accesses
system.cpu.dcache.demand_misses               3533159                       # number of demand (read+write) misses
system.cpu.dcache.demand_mshr_hits               7237                       # number of demand (read+write) MSHR hits
system.cpu.dcache.demand_mshr_miss_latency  99094172498                       # number of demand (read+write) MSHR miss cycles
system.cpu.dcache.demand_mshr_miss_rate      0.597328                       # mshr miss rate for demand accesses
system.cpu.dcache.demand_mshr_misses          3525922                       # number of demand (read+write) MSHR misses
system.cpu.dcache.fast_writes                       0                       # number of fast writes performed
system.cpu.dcache.mshr_cap_events                   0                       # number of times MSHR cap was activated
system.cpu.dcache.no_allocate_misses                0                       # Number of misses that were no-allocate
system.cpu.dcache.occ_%::0                   0.622201                       # Average percentage of cache occupancy
system.cpu.dcache.occ_blocks::0            637.133535                       # Average occupied blocks per context
system.cpu.dcache.overall_accesses            5902821                       # number of overall (read+write) accesses
system.cpu.dcache.overall_avg_miss_latency 31397.616407                       # average overall miss latency
system.cpu.dcache.overall_avg_mshr_miss_latency 28104.470972                       # average overall mshr miss latency
system.cpu.dcache.overall_avg_mshr_uncacheable_latency     no_value                       # average overall mshr uncacheable latency
system.cpu.dcache.overall_hits                2369662                       # number of overall hits
system.cpu.dcache.overall_miss_latency   110932770987                       # number of overall miss cycles
system.cpu.dcache.overall_miss_rate          0.598554                       # miss rate for overall accesses
system.cpu.dcache.overall_misses              3533159                       # number of overall misses
system.cpu.dcache.overall_mshr_hits              7237                       # number of overall MSHR hits
system.cpu.dcache.overall_mshr_miss_latency  99094172498                       # number of overall MSHR miss cycles
system.cpu.dcache.overall_mshr_miss_rate     0.597328                       # mshr miss rate for overall accesses
system.cpu.dcache.overall_mshr_misses         3525922                       # number of overall MSHR misses
system.cpu.dcache.overall_mshr_uncacheable_latency            0                       # number of overall MSHR uncacheable cycles
system.cpu.dcache.overall_mshr_uncacheable_misses            0                       # number of overall MSHR uncacheable misses
system.cpu.dcache.prefetch_accuracy          no_value                       # ratio of good prefetches to total prefetches
system.cpu.dcache.prefetch_hits                     0                       # number of prefetched blocks that were accessed
system.cpu.dcache.replacements                3524248                       # number of replacements
system.cpu.dcache.sampled_refs                3525098                       # Sample count of references to valid blocks.
system.cpu.dcache.soft_prefetch_mshr_full            0                       # number of mshr full events for SW prefetching instrutions
system.cpu.dcache.tagsinuse                637.133535                       # Cycle average of tags in use
system.cpu.dcache.total_refs                  2370808                       # Total number of references to valid blocks.
system.cpu.dcache.warmup_cycle                      0                       # Cycle when the warmup percentage was hit.
system.cpu.dcache.writebacks                     4506                       # number of writebacks
system.cpu.dtb.data_accesses                        0                       # DTB accesses
system.cpu.dtb.data_acv                             0                       # DTB access violations
system.cpu.dtb.data_hits                            0                       # DTB hits
system.cpu.dtb.data_misses                          0                       # DTB misses
system.cpu.dtb.fetch_accesses                       0                       # ITB accesses
system.cpu.dtb.fetch_acv                            0                       # ITB acv
system.cpu.dtb.fetch_hits                           0                       # ITB hits
system.cpu.dtb.fetch_misses                         0                       # ITB misses
system.cpu.dtb.read_accesses                        0                       # DTB read accesses
system.cpu.dtb.read_acv                             0                       # DTB read access violations
system.cpu.dtb.read_hits                            0                       # DTB read hits
system.cpu.dtb.read_misses                          0                       # DTB read misses
system.cpu.dtb.write_accesses                       0                       # DTB write accesses
system.cpu.dtb.write_acv                            0                       # DTB write access violations
system.cpu.dtb.write_hits                           0                       # DTB write hits
system.cpu.dtb.write_misses                         0                       # DTB write misses
system.cpu.icache.ReadReq_accesses           13516930                       # number of ReadReq accesses(hits+misses)
system.cpu.icache.ReadReq_avg_miss_latency 44556.873755                       # average ReadReq miss latency
system.cpu.icache.ReadReq_avg_mshr_miss_latency 40445.778466                       # average ReadReq mshr miss latency
system.cpu.icache.ReadReq_hits               13511409                       # number of ReadReq hits
system.cpu.icache.ReadReq_miss_latency      245998500                       # number of ReadReq miss cycles
system.cpu.icache.ReadReq_miss_rate          0.000408                       # miss rate for ReadReq accesses
system.cpu.icache.ReadReq_misses                 5521                       # number of ReadReq misses
system.cpu.icache.ReadReq_mshr_hits               356                       # number of ReadReq MSHR hits
system.cpu.icache.ReadReq_mshr_miss_latency    208862000                       # number of ReadReq MSHR miss cycles
system.cpu.icache.ReadReq_mshr_miss_rate     0.000382                       # mshr miss rate for ReadReq accesses
system.cpu.icache.ReadReq_mshr_misses            5164                       # number of ReadReq MSHR misses
system.cpu.icache.avg_blocked_cycles::no_mshrs     no_value                       # average number of cycles each access was blocked
system.cpu.icache.avg_blocked_cycles::no_targets       138500                       # average number of cycles each access was blocked
system.cpu.icache.avg_refs                2615.955276                       # Average number of references to valid blocks.
system.cpu.icache.blocked::no_mshrs                 0                       # number of cycles access was blocked
system.cpu.icache.blocked::no_targets               1                       # number of cycles access was blocked
system.cpu.icache.blocked_cycles::no_mshrs            0                       # number of cycles access was blocked
system.cpu.icache.blocked_cycles::no_targets       138500                       # number of cycles access was blocked
system.cpu.icache.cache_copies                      0                       # number of cache copies performed
system.cpu.icache.demand_accesses            13516930                       # number of demand (read+write) accesses
system.cpu.icache.demand_avg_miss_latency 44556.873755                       # average overall miss latency
system.cpu.icache.demand_avg_mshr_miss_latency 40445.778466                       # average overall mshr miss latency
system.cpu.icache.demand_hits                13511409                       # number of demand (read+write) hits
system.cpu.icache.demand_miss_latency       245998500                       # number of demand (read+write) miss cycles
system.cpu.icache.demand_miss_rate           0.000408                       # miss rate for demand accesses
system.cpu.icache.demand_misses                  5521                       # number of demand (read+write) misses
system.cpu.icache.demand_mshr_hits                356                       # number of demand (read+write) MSHR hits
system.cpu.icache.demand_mshr_miss_latency    208862000                       # number of demand (read+write) MSHR miss cycles
system.cpu.icache.demand_mshr_miss_rate      0.000382                       # mshr miss rate for demand accesses
system.cpu.icache.demand_mshr_misses             5164                       # number of demand (read+write) MSHR misses
system.cpu.icache.fast_writes                       0                       # number of fast writes performed
system.cpu.icache.mshr_cap_events                   0                       # number of times MSHR cap was activated
system.cpu.icache.no_allocate_misses                0                       # Number of misses that were no-allocate
system.cpu.icache.occ_%::0                   0.367272                       # Average percentage of cache occupancy
system.cpu.icache.occ_blocks::0            188.043400                       # Average occupied blocks per context
system.cpu.icache.overall_accesses           13516930                       # number of overall (read+write) accesses
system.cpu.icache.overall_avg_miss_latency 44556.873755                       # average overall miss latency
system.cpu.icache.overall_avg_mshr_miss_latency 40445.778466                       # average overall mshr miss latency
system.cpu.icache.overall_avg_mshr_uncacheable_latency     no_value                       # average overall mshr uncacheable latency
system.cpu.icache.overall_hits               13511409                       # number of overall hits
system.cpu.icache.overall_miss_latency      245998500                       # number of overall miss cycles
system.cpu.icache.overall_miss_rate          0.000408                       # miss rate for overall accesses
system.cpu.icache.overall_misses                 5521                       # number of overall misses
system.cpu.icache.overall_mshr_hits               356                       # number of overall MSHR hits
system.cpu.icache.overall_mshr_miss_latency    208862000                       # number of overall MSHR miss cycles
system.cpu.icache.overall_mshr_miss_rate     0.000382                       # mshr miss rate for overall accesses
system.cpu.icache.overall_mshr_misses            5164                       # number of overall MSHR misses
system.cpu.icache.overall_mshr_uncacheable_latency            0                       # number of overall MSHR uncacheable cycles
system.cpu.icache.overall_mshr_uncacheable_misses            0                       # number of overall MSHR uncacheable misses
system.cpu.icache.prefetch_accuracy          no_value                       # ratio of good prefetches to total prefetches
system.cpu.icache.prefetch_hits                     0                       # number of prefetched blocks that were accessed
system.cpu.icache.replacements                   4957                       # number of replacements
system.cpu.icache.sampled_refs                   5165                       # Sample count of references to valid blocks.
system.cpu.icache.soft_prefetch_mshr_full            0                       # number of mshr full events for SW prefetching instrutions
system.cpu.icache.tagsinuse                188.043400                       # Cycle average of tags in use
system.cpu.icache.total_refs                 13511409                       # Total number of references to valid blocks.
system.cpu.icache.warmup_cycle                      0                       # Cycle when the warmup percentage was hit.
system.cpu.icache.writebacks                        0                       # number of writebacks
system.cpu.idle_fraction                            0                       # Percentage of idle cycles
system.cpu.itb.data_accesses                        0                       # DTB accesses
system.cpu.itb.data_acv                             0                       # DTB access violations
system.cpu.itb.data_hits                            0                       # DTB hits
system.cpu.itb.data_misses                          0                       # DTB misses
system.cpu.itb.fetch_accesses                       2                       # ITB accesses
system.cpu.itb.fetch_acv                            0                       # ITB acv
system.cpu.itb.fetch_hits                           2                       # ITB hits
system.cpu.itb.fetch_misses                         0                       # ITB misses
system.cpu.itb.read_accesses                        0                       # DTB read accesses
system.cpu.itb.read_acv                             0                       # DTB read access violations
system.cpu.itb.read_hits                            0                       # DTB read hits
system.cpu.itb.read_misses                          0                       # DTB read misses
system.cpu.itb.write_accesses                       0                       # DTB write accesses
system.cpu.itb.write_acv                            0                       # DTB write access violations
system.cpu.itb.write_hits                           0                       # DTB write hits
system.cpu.itb.write_misses                         0                       # DTB write misses
system.cpu.not_idle_fraction                        1                       # Percentage of non-idle cycles
system.cpu.numCycles                                2                       # number of cpu cycles simulated
system.cpu.num_insts                                2                       # Number of instructions executed
system.cpu.num_refs                                 0                       # Number of memory references
system.cpu.workload.PROG:num_syscalls               3                       # Number of system calls
system.l2.HardPFReq_avg_mshr_miss_latency 117414.199705                       # average HardPFReq mshr miss latency
system.l2.HardPFReq_mshr_miss_latency    403160206131                       # number of HardPFReq MSHR miss cycles
system.l2.HardPFReq_mshr_miss_rate                inf                       # mshr miss rate for HardPFReq accesses
system.l2.HardPFReq_mshr_misses               3433658                       # number of HardPFReq MSHR misses
system.l2.ReadExReq_accesses                     4041                       # number of ReadExReq accesses(hits+misses)
system.l2.ReadExReq_avg_miss_latency     83531.451213                       # average ReadExReq miss latency
system.l2.ReadExReq_avg_mshr_miss_latency 68032.821402                       # average ReadExReq mshr miss latency
system.l2.ReadExReq_hits                            3                       # number of ReadExReq hits
system.l2.ReadExReq_miss_latency            337300000                       # number of ReadExReq miss cycles
system.l2.ReadExReq_miss_rate                0.999258                       # miss rate for ReadExReq accesses
system.l2.ReadExReq_misses                       4038                       # number of ReadExReq misses
system.l2.ReadExReq_mshr_hits                       1                       # number of ReadExReq MSHR hits
system.l2.ReadExReq_mshr_miss_latency       274648500                       # number of ReadExReq MSHR miss cycles
system.l2.ReadExReq_mshr_miss_rate           0.999010                       # mshr miss rate for ReadExReq accesses
system.l2.ReadExReq_mshr_misses                  4037                       # number of ReadExReq MSHR misses
system.l2.ReadReq_accesses                    3526222                       # number of ReadReq accesses(hits+misses)
system.l2.ReadReq_avg_miss_latency       89744.986749                       # average ReadReq miss latency
system.l2.ReadReq_avg_mshr_miss_latency  122857.415886                       # average ReadReq mshr miss latency
system.l2.ReadReq_hits                        2901378                       # number of ReadReq hits
system.l2.ReadReq_miss_latency            56076616500                       # number of ReadReq miss cycles
system.l2.ReadReq_miss_rate                  0.177199                       # miss rate for ReadReq accesses
system.l2.ReadReq_misses                       624844                       # number of ReadReq misses
system.l2.ReadReq_mshr_hits                    296777                       # number of ReadReq MSHR hits
system.l2.ReadReq_mshr_miss_latency       40305341000                       # number of ReadReq MSHR miss cycles
system.l2.ReadReq_mshr_miss_rate             0.093036                       # mshr miss rate for ReadReq accesses
system.l2.ReadReq_mshr_misses                  328066                       # number of ReadReq MSHR misses
system.l2.UpgradeReq_accesses                     920                       # number of UpgradeReq accesses(hits+misses)
system.l2.UpgradeReq_avg_miss_latency    88015.217391                       # average UpgradeReq miss latency
system.l2.UpgradeReq_avg_mshr_miss_latency 72670.108696                       # average UpgradeReq mshr miss latency
system.l2.UpgradeReq_miss_latency            80974000                       # number of UpgradeReq miss cycles
system.l2.UpgradeReq_miss_rate                      1                       # miss rate for UpgradeReq accesses
system.l2.UpgradeReq_misses                       920                       # number of UpgradeReq misses
system.l2.UpgradeReq_mshr_miss_latency       66856500                       # number of UpgradeReq MSHR miss cycles
system.l2.UpgradeReq_mshr_miss_rate                 1                       # mshr miss rate for UpgradeReq accesses
system.l2.UpgradeReq_mshr_misses                  920                       # number of UpgradeReq MSHR misses
system.l2.Writeback_accesses                     4506                       # number of Writeback accesses(hits+misses)
system.l2.Writeback_hits                         4506                       # number of Writeback hits
system.l2.avg_blocked_cycles::no_mshrs       no_value                       # average number of cycles each access was blocked
system.l2.avg_blocked_cycles::no_targets     no_value                       # average number of cycles each access was blocked
system.l2.avg_refs                           0.770837                       # Average number of references to valid blocks.
system.l2.blocked::no_mshrs                         0                       # number of cycles access was blocked
system.l2.blocked::no_targets                       0                       # number of cycles access was blocked
system.l2.blocked_cycles::no_mshrs                  0                       # number of cycles access was blocked
system.l2.blocked_cycles::no_targets                0                       # number of cycles access was blocked
system.l2.cache_copies                              0                       # number of cache copies performed
system.l2.demand_accesses                     3530263                       # number of demand (read+write) accesses
system.l2.demand_avg_miss_latency        89705.090144                       # average overall miss latency
system.l2.demand_avg_mshr_miss_latency   122190.975390                       # average overall mshr miss latency
system.l2.demand_hits                         2901381                       # number of demand (read+write) hits
system.l2.demand_miss_latency             56413916500                       # number of demand (read+write) miss cycles
system.l2.demand_miss_rate                   0.178140                       # miss rate for demand accesses
system.l2.demand_misses                        628882                       # number of demand (read+write) misses
system.l2.demand_mshr_hits                     296778                       # number of demand (read+write) MSHR hits
system.l2.demand_mshr_miss_latency        40579989500                       # number of demand (read+write) MSHR miss cycles
system.l2.demand_mshr_miss_rate              0.094073                       # mshr miss rate for demand accesses
system.l2.demand_mshr_misses                   332103                       # number of demand (read+write) MSHR misses
system.l2.fast_writes                               0                       # number of fast writes performed
system.l2.mshr_cap_events                           0                       # number of times MSHR cap was activated
system.l2.no_allocate_misses                        0                       # Number of misses that were no-allocate
system.l2.occ_%::0                           0.266879                       # Average percentage of cache occupancy
system.l2.occ_%::1                           0.000595                       # Average percentage of cache occupancy
system.l2.occ_blocks::0                   4372.537998                       # Average occupied blocks per context
system.l2.occ_blocks::1                      9.749322                       # Average occupied blocks per context
system.l2.overall_accesses                    3530263                       # number of overall (read+write) accesses
system.l2.overall_avg_miss_latency       89705.090144                       # average overall miss latency
system.l2.overall_avg_mshr_miss_latency  117835.464234                       # average overall mshr miss latency
system.l2.overall_avg_mshr_uncacheable_latency     no_value                       # average overall mshr uncacheable latency
system.l2.overall_hits                        2901381                       # number of overall hits
system.l2.overall_miss_latency            56413916500                       # number of overall miss cycles
system.l2.overall_miss_rate                  0.178140                       # miss rate for overall accesses
system.l2.overall_misses                       628882                       # number of overall misses
system.l2.overall_mshr_hits                    296778                       # number of overall MSHR hits
system.l2.overall_mshr_miss_latency      443740195631                       # number of overall MSHR miss cycles
system.l2.overall_mshr_miss_rate             1.066708                       # mshr miss rate for overall accesses
system.l2.overall_mshr_misses                 3765761                       # number of overall MSHR misses
system.l2.overall_mshr_uncacheable_latency            0                       # number of overall MSHR uncacheable cycles
system.l2.overall_mshr_uncacheable_misses            0                       # number of overall MSHR uncacheable misses
system.l2.prefetch_accuracy                  0.844152                       # ratio of good prefetches to total prefetches
system.l2.prefetch_hits                       2898528                       # number of prefetched blocks that were accessed
system.l2.prefetcher.num_hwpf_already_in_prefetcher     10282724                       # number of hwpf that were already in the prefetch queue
system.l2.prefetcher.num_hwpf_evicted               0                       # number of hwpf removed due to no buffer left
system.l2.prefetcher.num_hwpf_identified     14437514                       # number of hwpf identified
system.l2.prefetcher.num_hwpf_issued          3661330                       # number of hwpf issued
system.l2.prefetcher.num_hwpf_removed_MSHR_hit       493418                       # number of hwpf removed because MSHR allocated
system.l2.prefetcher.num_hwpf_span_page             0                       # number of hwpf spanning a virtual page
system.l2.prefetcher.num_hwpf_squashed_from_miss            0                       # number of hwpf that got squashed due to a miss aborting calculation time
system.l2.replacements                        3760759                       # number of replacements
system.l2.sampled_refs                        3765200                       # Sample count of references to valid blocks.
system.l2.soft_prefetch_mshr_full                   0                       # number of mshr full events for SW prefetching instrutions
system.l2.tagsinuse                       4382.287320                       # Cycle average of tags in use
system.l2.total_refs                          2902355                       # Total number of references to valid blocks.
system.l2.warmup_cycle                              0                       # Cycle when the warmup percentage was hit.
system.l2.writebacks                             4475                       # number of writebacks
system.switch_cpus.dtb.data_accesses          2832022                       # DTB accesses
system.switch_cpus.dtb.data_acv                     0                       # DTB access violations
system.switch_cpus.dtb.data_hits              2558233                       # DTB hits
system.switch_cpus.dtb.data_misses             273789                       # DTB misses
system.switch_cpus.dtb.fetch_accesses               0                       # ITB accesses
system.switch_cpus.dtb.fetch_acv                    0                       # ITB acv
system.switch_cpus.dtb.fetch_hits                   0                       # ITB hits
system.switch_cpus.dtb.fetch_misses                 0                       # ITB misses
system.switch_cpus.dtb.read_accesses          2682476                       # DTB read accesses
system.switch_cpus.dtb.read_acv                     0                       # DTB read access violations
system.switch_cpus.dtb.read_hits              2409028                       # DTB read hits
system.switch_cpus.dtb.read_misses             273448                       # DTB read misses
system.switch_cpus.dtb.write_accesses          149546                       # DTB write accesses
system.switch_cpus.dtb.write_acv                    0                       # DTB write access violations
system.switch_cpus.dtb.write_hits              149205                       # DTB write hits
system.switch_cpus.dtb.write_misses               341                       # DTB write misses
system.switch_cpus.idle_fraction                    1                       # Percentage of idle cycles
system.switch_cpus.itb.data_accesses                0                       # DTB accesses
system.switch_cpus.itb.data_acv                     0                       # DTB access violations
system.switch_cpus.itb.data_hits                    0                       # DTB hits
system.switch_cpus.itb.data_misses                  0                       # DTB misses
system.switch_cpus.itb.fetch_accesses        10273803                       # ITB accesses
system.switch_cpus.itb.fetch_acv                    0                       # ITB acv
system.switch_cpus.itb.fetch_hits            10273790                       # ITB hits
system.switch_cpus.itb.fetch_misses                13                       # ITB misses
system.switch_cpus.itb.read_accesses                0                       # DTB read accesses
system.switch_cpus.itb.read_acv                     0                       # DTB read access violations
system.switch_cpus.itb.read_hits                    0                       # DTB read hits
system.switch_cpus.itb.read_misses                  0                       # DTB read misses
system.switch_cpus.itb.write_accesses               0                       # DTB write accesses
system.switch_cpus.itb.write_acv                    0                       # DTB write access violations
system.switch_cpus.itb.write_hits                   0                       # DTB write hits
system.switch_cpus.itb.write_misses                 0                       # DTB write misses
system.switch_cpus.not_idle_fraction                0                       # Percentage of non-idle cycles
system.switch_cpus.numCycles                101352101                       # number of cpu cycles simulated
system.switch_cpus.num_insts                 10000001                       # Number of instructions executed
system.switch_cpus.num_refs                   2837031                       # Number of memory references
system.switch_cpus_1.BPredUnit.BTBCorrect            0                       # Number of correct BTB predictions (this stat may not work properly.
system.switch_cpus_1.BPredUnit.BTBHits        4524028                       # Number of BTB hits
system.switch_cpus_1.BPredUnit.BTBLookups      4710228                       # Number of BTB lookups
system.switch_cpus_1.BPredUnit.RASInCorrect           28                       # Number of incorrect RAS predictions.
system.switch_cpus_1.BPredUnit.condIncorrect        20571                       # Number of conditional branches incorrect
system.switch_cpus_1.BPredUnit.condPredicted      5243099                       # Number of conditional branches predicted
system.switch_cpus_1.BPredUnit.lookups        5390411                       # Number of BP lookups
system.switch_cpus_1.BPredUnit.usedRAS          53924                       # Number of times the RAS was used to get a target.
system.switch_cpus_1.commit.COM:branches      1639812                       # Number of branches committed
system.switch_cpus_1.commit.COM:bw_lim_events        74854                       # number cycles where commit BW limit reached
system.switch_cpus_1.commit.COM:bw_limited            0                       # number of insts not committed due to BW limits
system.switch_cpus_1.commit.COM:committed_per_cycle::samples     40479844                       # Number of insts commited each cycle
system.switch_cpus_1.commit.COM:committed_per_cycle::mean     0.254787                       # Number of insts commited each cycle
system.switch_cpus_1.commit.COM:committed_per_cycle::stdev     0.751973                       # Number of insts commited each cycle
system.switch_cpus_1.commit.COM:committed_per_cycle::underflows            0      0.00%      0.00% # Number of insts commited each cycle
system.switch_cpus_1.commit.COM:committed_per_cycle::0     34066811     84.16%     84.16% # Number of insts commited each cycle
system.switch_cpus_1.commit.COM:committed_per_cycle::1      4002296      9.89%     94.04% # Number of insts commited each cycle
system.switch_cpus_1.commit.COM:committed_per_cycle::2      1907503      4.71%     98.76% # Number of insts commited each cycle
system.switch_cpus_1.commit.COM:committed_per_cycle::3       137797      0.34%     99.10% # Number of insts commited each cycle
system.switch_cpus_1.commit.COM:committed_per_cycle::4        91485      0.23%     99.32% # Number of insts commited each cycle
system.switch_cpus_1.commit.COM:committed_per_cycle::5       107599      0.27%     99.59% # Number of insts commited each cycle
system.switch_cpus_1.commit.COM:committed_per_cycle::6        60205      0.15%     99.74% # Number of insts commited each cycle
system.switch_cpus_1.commit.COM:committed_per_cycle::7        31294      0.08%     99.82% # Number of insts commited each cycle
system.switch_cpus_1.commit.COM:committed_per_cycle::8        74854      0.18%    100.00% # Number of insts commited each cycle
system.switch_cpus_1.commit.COM:committed_per_cycle::overflows            0      0.00%    100.00% # Number of insts commited each cycle
system.switch_cpus_1.commit.COM:committed_per_cycle::min_value            0                       # Number of insts commited each cycle
system.switch_cpus_1.commit.COM:committed_per_cycle::max_value            8                       # Number of insts commited each cycle
system.switch_cpus_1.commit.COM:committed_per_cycle::total     40479844                       # Number of insts commited each cycle
system.switch_cpus_1.commit.COM:count        10313748                       # Number of instructions committed
system.switch_cpus_1.commit.COM:loads         2510912                       # Number of loads committed
system.switch_cpus_1.commit.COM:membars             0                       # Number of memory barriers committed
system.switch_cpus_1.commit.COM:refs          2655008                       # Number of memory references committed
system.switch_cpus_1.commit.COM:swp_count            0                       # Number of s/w prefetches committed
system.switch_cpus_1.commit.branchMispredicts        20233                       # The number of times a branch was mispredicted
system.switch_cpus_1.commit.commitCommittedInsts     10313748                       # The number of committed instructions
system.switch_cpus_1.commit.commitNonSpecStalls            1                       # The number of times commit has been forced to stall to communicate backwards
system.switch_cpus_1.commit.commitSquashedInsts     21904097                       # The number of squashed insts skipped by commit
system.switch_cpus_1.committedInsts          10000000                       # Number of Instructions Simulated
system.switch_cpus_1.committedInsts_total     10000000                       # Number of Instructions Simulated
system.switch_cpus_1.cpi                    10.181092                       # CPI: Cycles Per Instruction
system.switch_cpus_1.cpi_total              10.181092                       # CPI: Total CPI of All Threads
system.switch_cpus_1.decode.DECODE:BlockedCycles     25670386                       # Number of cycles decode is blocked
system.switch_cpus_1.decode.DECODE:BranchMispred          345                       # Number of times decode detected a branch misprediction
system.switch_cpus_1.decode.DECODE:BranchResolved        90991                       # Number of times decode resolved a branch
system.switch_cpus_1.decode.DECODE:DecodedInsts     33990664                       # Number of instructions handled by decode
system.switch_cpus_1.decode.DECODE:IdleCycles      7682076                       # Number of cycles decode is idle
system.switch_cpus_1.decode.DECODE:RunCycles      6514037                       # Number of cycles decode is running
system.switch_cpus_1.decode.DECODE:SquashCycles      2937324                       # Number of cycles decode is squashing
system.switch_cpus_1.decode.DECODE:SquashedInsts         1419                       # Number of squashed instructions handled by decode
system.switch_cpus_1.decode.DECODE:UnblockCycles       613344                       # Number of cycles decode is unblocking
system.switch_cpus_1.dtb.data_accesses        3999481                       # DTB accesses
system.switch_cpus_1.dtb.data_acv                   0                       # DTB access violations
system.switch_cpus_1.dtb.data_hits            3408212                       # DTB hits
system.switch_cpus_1.dtb.data_misses           591269                       # DTB misses
system.switch_cpus_1.dtb.fetch_accesses             0                       # ITB accesses
system.switch_cpus_1.dtb.fetch_acv                  0                       # ITB acv
system.switch_cpus_1.dtb.fetch_hits                 0                       # ITB hits
system.switch_cpus_1.dtb.fetch_misses               0                       # ITB misses
system.switch_cpus_1.dtb.read_accesses        3831180                       # DTB read accesses
system.switch_cpus_1.dtb.read_acv                   0                       # DTB read access violations
system.switch_cpus_1.dtb.read_hits            3240562                       # DTB read hits
system.switch_cpus_1.dtb.read_misses           590618                       # DTB read misses
system.switch_cpus_1.dtb.write_accesses        168301                       # DTB write accesses
system.switch_cpus_1.dtb.write_acv                  0                       # DTB write access violations
system.switch_cpus_1.dtb.write_hits            167650                       # DTB write hits
system.switch_cpus_1.dtb.write_misses             651                       # DTB write misses
system.switch_cpus_1.fetch.Branches           5390411                       # Number of branches that fetch encountered
system.switch_cpus_1.fetch.CacheLines         3243138                       # Number of cache lines fetched
system.switch_cpus_1.fetch.Cycles            10660408                       # Number of cycles fetch has run and was not squashing or blocked
system.switch_cpus_1.fetch.IcacheSquashes         4389                       # Number of outstanding Icache misses that were squashed
system.switch_cpus_1.fetch.Insts             35354550                       # Number of instructions fetch has processed
system.switch_cpus_1.fetch.SquashCycles        317560                       # Number of cycles fetch has spent squashing
system.switch_cpus_1.fetch.branchRate        0.052945                       # Number of branch fetches per cycle
system.switch_cpus_1.fetch.icacheStallCycles      3243138                       # Number of cycles fetch is stalled on an Icache miss
system.switch_cpus_1.fetch.predictedBranches      4577952                       # Number of branches that fetch has predicted taken
system.switch_cpus_1.fetch.rate              0.347257                       # Number of inst fetches per cycle
system.switch_cpus_1.fetch.rateDist::samples     43417168                       # Number of instructions fetched each cycle (Total)
system.switch_cpus_1.fetch.rateDist::mean     0.814299                       # Number of instructions fetched each cycle (Total)
system.switch_cpus_1.fetch.rateDist::stdev     2.026938                       # Number of instructions fetched each cycle (Total)
system.switch_cpus_1.fetch.rateDist::underflows            0      0.00%      0.00% # Number of instructions fetched each cycle (Total)
system.switch_cpus_1.fetch.rateDist::0       35999958     82.92%     82.92% # Number of instructions fetched each cycle (Total)
system.switch_cpus_1.fetch.rateDist::1         935870      2.16%     85.07% # Number of instructions fetched each cycle (Total)
system.switch_cpus_1.fetch.rateDist::2          74678      0.17%     85.24% # Number of instructions fetched each cycle (Total)
system.switch_cpus_1.fetch.rateDist::3          64222      0.15%     85.39% # Number of instructions fetched each cycle (Total)
system.switch_cpus_1.fetch.rateDist::4        4073159      9.38%     94.77% # Number of instructions fetched each cycle (Total)
system.switch_cpus_1.fetch.rateDist::5          56597      0.13%     94.90% # Number of instructions fetched each cycle (Total)
system.switch_cpus_1.fetch.rateDist::6          82192      0.19%     95.09% # Number of instructions fetched each cycle (Total)
system.switch_cpus_1.fetch.rateDist::7          36051      0.08%     95.18% # Number of instructions fetched each cycle (Total)
system.switch_cpus_1.fetch.rateDist::8        2094441      4.82%    100.00% # Number of instructions fetched each cycle (Total)
system.switch_cpus_1.fetch.rateDist::overflows            0      0.00%    100.00% # Number of instructions fetched each cycle (Total)
system.switch_cpus_1.fetch.rateDist::min_value            0                       # Number of instructions fetched each cycle (Total)
system.switch_cpus_1.fetch.rateDist::max_value            8                       # Number of instructions fetched each cycle (Total)
system.switch_cpus_1.fetch.rateDist::total     43417168                       # Number of instructions fetched each cycle (Total)
system.switch_cpus_1.idleCycles              58393752                       # Total number of cycles that the CPU has spent unscheduled due to idling
system.switch_cpus_1.iew.EXEC:branches        2330381                       # Number of branches executed
system.switch_cpus_1.iew.EXEC:nop              363723                       # number of nop insts executed
system.switch_cpus_1.iew.EXEC:rate           0.140259                       # Inst execution rate
system.switch_cpus_1.iew.EXEC:refs            4005856                       # number of memory reference insts executed
system.switch_cpus_1.iew.EXEC:stores           168301                       # Number of stores executed
system.switch_cpus_1.iew.EXEC:swp                   0                       # number of swp insts executed
system.switch_cpus_1.iew.WB:consumers        12070049                       # num instructions consuming a value
system.switch_cpus_1.iew.WB:count            13663955                       # cumulative count of insts written-back
system.switch_cpus_1.iew.WB:fanout           0.654553                       # average fanout of values written-back
system.switch_cpus_1.iew.WB:penalized               0                       # number of instrctions required to write to 'other' IQ
system.switch_cpus_1.iew.WB:penalized_rate            0                       # fraction of instructions written-back that wrote to 'other' IQ
system.switch_cpus_1.iew.WB:producers         7900481                       # num instructions producing a value
system.switch_cpus_1.iew.WB:rate             0.134209                       # insts written-back per cycle
system.switch_cpus_1.iew.WB:sent             14256385                       # cumulative count of insts sent to commit
system.switch_cpus_1.iew.branchMispredicts        23113                       # Number of branch mispredicts detected at execute
system.switch_cpus_1.iew.iewBlockCycles      16230167                       # Number of cycles IEW is blocking
system.switch_cpus_1.iew.iewDispLoadInsts      8758283                       # Number of dispatched load instructions
system.switch_cpus_1.iew.iewDispNonSpecInsts            1                       # Number of dispatched non-speculative instructions
system.switch_cpus_1.iew.iewDispSquashedInsts        20993                       # Number of squashed instructions skipped by dispatch
system.switch_cpus_1.iew.iewDispStoreInsts       185306                       # Number of dispatched store instructions
system.switch_cpus_1.iew.iewDispatchedInsts     32629357                       # Number of instructions dispatched to IQ
system.switch_cpus_1.iew.iewExecLoadInsts      3837555                       # Number of load instructions executed
system.switch_cpus_1.iew.iewExecSquashedInsts        18746                       # Number of squashed instructions skipped in execute
system.switch_cpus_1.iew.iewExecutedInsts     14279871                       # Number of executed instructions
system.switch_cpus_1.iew.iewIQFullEvents       469533                       # Number of times the IQ has become full, causing a stall
system.switch_cpus_1.iew.iewIdleCycles              0                       # Number of cycles IEW is idle
system.switch_cpus_1.iew.iewLSQFullEvents          835                       # Number of times the LSQ has become full, causing a stall
system.switch_cpus_1.iew.iewSquashCycles      2937324                       # Number of cycles IEW is squashing
system.switch_cpus_1.iew.iewUnblockCycles      1034336                       # Number of cycles IEW is unblocking
system.switch_cpus_1.iew.lsq.thread.0.blockedLoads            0                       # Number of blocked loads due to partial load-store forwarding
system.switch_cpus_1.iew.lsq.thread.0.cacheBlocked         7737                       # Number of times an access to memory failed due to the cache being blocked
system.switch_cpus_1.iew.lsq.thread.0.forwLoads        32882                       # Number of loads that had data forwarded from stores
system.switch_cpus_1.iew.lsq.thread.0.ignoredResponses          271                       # Number of memory responses ignored because the instruction is squashed
system.switch_cpus_1.iew.lsq.thread.0.invAddrLoads            0                       # Number of loads ignored due to an invalid address
system.switch_cpus_1.iew.lsq.thread.0.invAddrSwpfs            0                       # Number of software prefetches ignored due to an invalid address
system.switch_cpus_1.iew.lsq.thread.0.memOrderViolation          574                       # Number of memory ordering violations
system.switch_cpus_1.iew.lsq.thread.0.rescheduledLoads            0                       # Number of loads that were rescheduled
system.switch_cpus_1.iew.lsq.thread.0.squashedLoads      6247350                       # Number of loads squashed
system.switch_cpus_1.iew.lsq.thread.0.squashedStores        41210                       # Number of stores squashed
system.switch_cpus_1.iew.memOrderViolationEvents          574                       # Number of memory order violations
system.switch_cpus_1.iew.predictedNotTakenIncorrect         7107                       # Number of branches that were predicted not taken incorrectly
system.switch_cpus_1.iew.predictedTakenIncorrect        16006                       # Number of branches that were predicted taken incorrectly
system.switch_cpus_1.ipc                     0.098221                       # IPC: Instructions Per Cycle
system.switch_cpus_1.ipc_total               0.098221                       # IPC: Total IPC of All Threads
system.switch_cpus_1.iq.ISSUE:FU_type_0::No_OpClass            0      0.00%      0.00% # Type of FU issued
system.switch_cpus_1.iq.ISSUE:FU_type_0::IntAlu     10279919     71.89%     71.89% # Type of FU issued
system.switch_cpus_1.iq.ISSUE:FU_type_0::IntMult         1084      0.01%     71.90% # Type of FU issued
system.switch_cpus_1.iq.ISSUE:FU_type_0::IntDiv            0      0.00%     71.90% # Type of FU issued
system.switch_cpus_1.iq.ISSUE:FU_type_0::FloatAdd         4183      0.03%     71.93% # Type of FU issued
system.switch_cpus_1.iq.ISSUE:FU_type_0::FloatCmp            0      0.00%     71.93% # Type of FU issued
system.switch_cpus_1.iq.ISSUE:FU_type_0::FloatCvt         1100      0.01%     71.94% # Type of FU issued
system.switch_cpus_1.iq.ISSUE:FU_type_0::FloatMult          220      0.00%     71.94% # Type of FU issued
system.switch_cpus_1.iq.ISSUE:FU_type_0::FloatDiv            0      0.00%     71.94% # Type of FU issued
system.switch_cpus_1.iq.ISSUE:FU_type_0::FloatSqrt            0      0.00%     71.94% # Type of FU issued
system.switch_cpus_1.iq.ISSUE:FU_type_0::MemRead      3842058     26.87%     98.81% # Type of FU issued
system.switch_cpus_1.iq.ISSUE:FU_type_0::MemWrite       170053      1.19%    100.00% # Type of FU issued
system.switch_cpus_1.iq.ISSUE:FU_type_0::IprAccess            0      0.00%    100.00% # Type of FU issued
system.switch_cpus_1.iq.ISSUE:FU_type_0::InstPrefetch            0      0.00%    100.00% # Type of FU issued
system.switch_cpus_1.iq.ISSUE:FU_type_0::total     14298617                       # Type of FU issued
system.switch_cpus_1.iq.ISSUE:fu_busy_cnt         8932                       # FU busy when requested
system.switch_cpus_1.iq.ISSUE:fu_busy_rate     0.000625                       # FU busy rate (busy events/executed inst)
system.switch_cpus_1.iq.ISSUE:fu_full::No_OpClass            0      0.00%      0.00% # attempts to use FU when none available
system.switch_cpus_1.iq.ISSUE:fu_full::IntAlu           68      0.76%      0.76% # attempts to use FU when none available
system.switch_cpus_1.iq.ISSUE:fu_full::IntMult            0      0.00%      0.76% # attempts to use FU when none available
system.switch_cpus_1.iq.ISSUE:fu_full::IntDiv            0      0.00%      0.76% # attempts to use FU when none available
system.switch_cpus_1.iq.ISSUE:fu_full::FloatAdd            0      0.00%      0.76% # attempts to use FU when none available
system.switch_cpus_1.iq.ISSUE:fu_full::FloatCmp            0      0.00%      0.76% # attempts to use FU when none available
system.switch_cpus_1.iq.ISSUE:fu_full::FloatCvt            0      0.00%      0.76% # attempts to use FU when none available
system.switch_cpus_1.iq.ISSUE:fu_full::FloatMult            0      0.00%      0.76% # attempts to use FU when none available
system.switch_cpus_1.iq.ISSUE:fu_full::FloatDiv            0      0.00%      0.76% # attempts to use FU when none available
system.switch_cpus_1.iq.ISSUE:fu_full::FloatSqrt            0      0.00%      0.76% # attempts to use FU when none available
system.switch_cpus_1.iq.ISSUE:fu_full::MemRead         4996     55.93%     56.70% # attempts to use FU when none available
system.switch_cpus_1.iq.ISSUE:fu_full::MemWrite         3868     43.30%    100.00% # attempts to use FU when none available
system.switch_cpus_1.iq.ISSUE:fu_full::IprAccess            0      0.00%    100.00% # attempts to use FU when none available
system.switch_cpus_1.iq.ISSUE:fu_full::InstPrefetch            0      0.00%    100.00% # attempts to use FU when none available
system.switch_cpus_1.iq.ISSUE:issued_per_cycle::samples     43417168                       # Number of insts issued each cycle
system.switch_cpus_1.iq.ISSUE:issued_per_cycle::mean     0.329331                       # Number of insts issued each cycle
system.switch_cpus_1.iq.ISSUE:issued_per_cycle::stdev     0.724088                       # Number of insts issued each cycle
system.switch_cpus_1.iq.ISSUE:issued_per_cycle::underflows            0      0.00%      0.00% # Number of insts issued each cycle
system.switch_cpus_1.iq.ISSUE:issued_per_cycle::0     33438005     77.02%     77.02% # Number of insts issued each cycle
system.switch_cpus_1.iq.ISSUE:issued_per_cycle::1      7374166     16.98%     94.00% # Number of insts issued each cycle
system.switch_cpus_1.iq.ISSUE:issued_per_cycle::2      1295052      2.98%     96.98% # Number of insts issued each cycle
system.switch_cpus_1.iq.ISSUE:issued_per_cycle::3      1028237      2.37%     99.35% # Number of insts issued each cycle
system.switch_cpus_1.iq.ISSUE:issued_per_cycle::4       179641      0.41%     99.76% # Number of insts issued each cycle
system.switch_cpus_1.iq.ISSUE:issued_per_cycle::5        86217      0.20%     99.96% # Number of insts issued each cycle
system.switch_cpus_1.iq.ISSUE:issued_per_cycle::6        11188      0.03%     99.99% # Number of insts issued each cycle
system.switch_cpus_1.iq.ISSUE:issued_per_cycle::7         4437      0.01%    100.00% # Number of insts issued each cycle
system.switch_cpus_1.iq.ISSUE:issued_per_cycle::8          225      0.00%    100.00% # Number of insts issued each cycle
system.switch_cpus_1.iq.ISSUE:issued_per_cycle::overflows            0      0.00%    100.00% # Number of insts issued each cycle
system.switch_cpus_1.iq.ISSUE:issued_per_cycle::min_value            0                       # Number of insts issued each cycle
system.switch_cpus_1.iq.ISSUE:issued_per_cycle::max_value            8                       # Number of insts issued each cycle
system.switch_cpus_1.iq.ISSUE:issued_per_cycle::total     43417168                       # Number of insts issued each cycle
system.switch_cpus_1.iq.ISSUE:rate           0.140443                       # Inst issue rate
system.switch_cpus_1.iq.iqInstsAdded         32265633                       # Number of instructions added to the IQ (excludes non-spec)
system.switch_cpus_1.iq.iqInstsIssued        14298617                       # Number of instructions issued
system.switch_cpus_1.iq.iqNonSpecInstsAdded            1                       # Number of non-speculative instructions added to the IQ
system.switch_cpus_1.iq.iqSquashedInstsExamined     22246411                       # Number of squashed instructions iterated over during squash; mainly for profiling
system.switch_cpus_1.iq.iqSquashedInstsIssued          527                       # Number of squashed instructions issued
system.switch_cpus_1.iq.iqSquashedOperandsExamined     31593233                       # Number of squashed operands that are examined and possibly removed from graph
system.switch_cpus_1.itb.data_accesses              0                       # DTB accesses
system.switch_cpus_1.itb.data_acv                   0                       # DTB access violations
system.switch_cpus_1.itb.data_hits                  0                       # DTB hits
system.switch_cpus_1.itb.data_misses                0                       # DTB misses
system.switch_cpus_1.itb.fetch_accesses       3243199                       # ITB accesses
system.switch_cpus_1.itb.fetch_acv                  0                       # ITB acv
system.switch_cpus_1.itb.fetch_hits           3243138                       # ITB hits
system.switch_cpus_1.itb.fetch_misses              61                       # ITB misses
system.switch_cpus_1.itb.read_accesses              0                       # DTB read accesses
system.switch_cpus_1.itb.read_acv                   0                       # DTB read access violations
system.switch_cpus_1.itb.read_hits                  0                       # DTB read hits
system.switch_cpus_1.itb.read_misses                0                       # DTB read misses
system.switch_cpus_1.itb.write_accesses             0                       # DTB write accesses
system.switch_cpus_1.itb.write_acv                  0                       # DTB write access violations
system.switch_cpus_1.itb.write_hits                 0                       # DTB write hits
system.switch_cpus_1.itb.write_misses               0                       # DTB write misses
system.switch_cpus_1.memDep0.conflictingLoads        67181                       # Number of conflicting loads.
system.switch_cpus_1.memDep0.conflictingStores         2603                       # Number of conflicting stores.
system.switch_cpus_1.memDep0.insertedLoads      8758283                       # Number of loads inserted to the mem dependence unit.
system.switch_cpus_1.memDep0.insertedStores       185306                       # Number of stores inserted to the mem dependence unit.
system.switch_cpus_1.numCycles              101810920                       # number of cpu cycles simulated
system.switch_cpus_1.rename.RENAME:BlockCycles     21701049                       # Number of cycles rename is blocking
system.switch_cpus_1.rename.RENAME:CommittedMaps      8255878                       # Number of HB maps that are committed
system.switch_cpus_1.rename.RENAME:IQFullEvents      4157819                       # Number of times rename has blocked due to IQ full
system.switch_cpus_1.rename.RENAME:IdleCycles      8255230                       # Number of cycles rename is idle
system.switch_cpus_1.rename.RENAME:LSQFullEvents        27733                       # Number of times rename has blocked due to LSQ full
system.switch_cpus_1.rename.RENAME:ROBFullEvents          964                       # Number of times rename has blocked due to ROB full
system.switch_cpus_1.rename.RENAME:RenameLookups     53222946                       # Number of register rename lookups that rename has made
system.switch_cpus_1.rename.RENAME:RenamedInsts     33047358                       # Number of instructions processed by rename
system.switch_cpus_1.rename.RENAME:RenamedOperands     27491583                       # Number of destination operands rename has renamed
system.switch_cpus_1.rename.RENAME:RunCycles      6548742                       # Number of cycles rename is running
system.switch_cpus_1.rename.RENAME:SquashCycles      2937324                       # Number of cycles rename is squashing
system.switch_cpus_1.rename.RENAME:UnblockCycles      3974811                       # Number of cycles rename is unblocking
system.switch_cpus_1.rename.RENAME:UndoneMaps     19235639                       # Number of HB maps that are undone due to squashing
system.switch_cpus_1.rename.RENAME:serializeStallCycles           11                       # count of cycles rename stalled for serializing inst
system.switch_cpus_1.rename.RENAME:serializingInsts            1                       # count of serializing insts renamed
system.switch_cpus_1.rename.RENAME:skidInsts      7446699                       # count of insts added to the skid buffer
system.switch_cpus_1.rename.RENAME:tempSerializingInsts            1                       # count of temporary serializing insts renamed
system.switch_cpus_1.timesIdled                992647                       # Number of times that the entire CPU went into an idle state and unscheduled itself

---------- End Simulation Statistics   ----------
