
---------- Begin Simulation Statistics ----------
host_inst_rate                                 385098                       # Simulator instruction rate (inst/s)
host_mem_usage                                 402752                       # Number of bytes of host memory used
host_seconds                                    51.94                       # Real time elapsed on the host
host_tick_rate                              344914355                       # Simulator tick rate (ticks/s)
sim_freq                                 1000000000000                       # Frequency of simulated ticks
sim_insts                                    20000003                       # Number of instructions simulated
sim_seconds                                  0.017913                       # Number of seconds simulated
sim_ticks                                 17913141500                       # Number of ticks simulated
system.cpu.dcache.ReadReq_accesses            3314680                       # number of ReadReq accesses(hits+misses)
system.cpu.dcache.ReadReq_avg_miss_latency 20128.549671                       # average ReadReq miss latency
system.cpu.dcache.ReadReq_avg_mshr_miss_latency 17484.990128                       # average ReadReq mshr miss latency
system.cpu.dcache.ReadReq_hits                3224073                       # number of ReadReq hits
system.cpu.dcache.ReadReq_miss_latency     1823787500                       # number of ReadReq miss cycles
system.cpu.dcache.ReadReq_miss_rate          0.027335                       # miss rate for ReadReq accesses
system.cpu.dcache.ReadReq_misses                90607                       # number of ReadReq misses
system.cpu.dcache.ReadReq_mshr_hits              6529                       # number of ReadReq MSHR hits
system.cpu.dcache.ReadReq_mshr_miss_latency   1470103000                       # number of ReadReq MSHR miss cycles
system.cpu.dcache.ReadReq_mshr_miss_rate     0.025365                       # mshr miss rate for ReadReq accesses
system.cpu.dcache.ReadReq_mshr_misses           84078                       # number of ReadReq MSHR misses
system.cpu.dcache.WriteReq_accesses           2822830                       # number of WriteReq accesses(hits+misses)
system.cpu.dcache.WriteReq_avg_miss_latency 27693.026287                       # average WriteReq miss latency
system.cpu.dcache.WriteReq_avg_mshr_miss_latency 25013.732491                       # average WriteReq mshr miss latency
system.cpu.dcache.WriteReq_hits               2818227                       # number of WriteReq hits
system.cpu.dcache.WriteReq_miss_latency     127471000                       # number of WriteReq miss cycles
system.cpu.dcache.WriteReq_miss_rate         0.001631                       # miss rate for WriteReq accesses
system.cpu.dcache.WriteReq_misses                4603                       # number of WriteReq misses
system.cpu.dcache.WriteReq_mshr_hits              961                       # number of WriteReq MSHR hits
system.cpu.dcache.WriteReq_mshr_miss_latency     91075000                       # number of WriteReq MSHR miss cycles
system.cpu.dcache.WriteReq_mshr_miss_rate     0.001290                       # mshr miss rate for WriteReq accesses
system.cpu.dcache.WriteReq_mshr_misses           3641                       # number of WriteReq MSHR misses
system.cpu.dcache.avg_blocked_cycles::no_mshrs     no_value                       # average number of cycles each access was blocked
system.cpu.dcache.avg_blocked_cycles::no_targets 47524.271845                       # average number of cycles each access was blocked
system.cpu.dcache.avg_refs                  69.465310                       # Average number of references to valid blocks.
system.cpu.dcache.blocked::no_mshrs                 0                       # number of cycles access was blocked
system.cpu.dcache.blocked::no_targets             103                       # number of cycles access was blocked
system.cpu.dcache.blocked_cycles::no_mshrs            0                       # number of cycles access was blocked
system.cpu.dcache.blocked_cycles::no_targets      4895000                       # number of cycles access was blocked
system.cpu.dcache.cache_copies                      0                       # number of cache copies performed
system.cpu.dcache.demand_accesses             6137510                       # number of demand (read+write) accesses
system.cpu.dcache.demand_avg_miss_latency 20494.260057                       # average overall miss latency
system.cpu.dcache.demand_avg_mshr_miss_latency 17797.489711                       # average overall mshr miss latency
system.cpu.dcache.demand_hits                 6042300                       # number of demand (read+write) hits
system.cpu.dcache.demand_miss_latency      1951258500                       # number of demand (read+write) miss cycles
system.cpu.dcache.demand_miss_rate           0.015513                       # miss rate for demand accesses
system.cpu.dcache.demand_misses                 95210                       # number of demand (read+write) misses
system.cpu.dcache.demand_mshr_hits               7490                       # number of demand (read+write) MSHR hits
system.cpu.dcache.demand_mshr_miss_latency   1561178000                       # number of demand (read+write) MSHR miss cycles
system.cpu.dcache.demand_mshr_miss_rate      0.014292                       # mshr miss rate for demand accesses
system.cpu.dcache.demand_mshr_misses            87719                       # number of demand (read+write) MSHR misses
system.cpu.dcache.fast_writes                       0                       # number of fast writes performed
system.cpu.dcache.mshr_cap_events                   0                       # number of times MSHR cap was activated
system.cpu.dcache.no_allocate_misses                0                       # Number of misses that were no-allocate
system.cpu.dcache.occ_%::0                   0.980661                       # Average percentage of cache occupancy
system.cpu.dcache.occ_blocks::0           1004.196850                       # Average occupied blocks per context
system.cpu.dcache.overall_accesses            6137510                       # number of overall (read+write) accesses
system.cpu.dcache.overall_avg_miss_latency 20494.260057                       # average overall miss latency
system.cpu.dcache.overall_avg_mshr_miss_latency 17797.489711                       # average overall mshr miss latency
system.cpu.dcache.overall_avg_mshr_uncacheable_latency     no_value                       # average overall mshr uncacheable latency
system.cpu.dcache.overall_hits                6042300                       # number of overall hits
system.cpu.dcache.overall_miss_latency     1951258500                       # number of overall miss cycles
system.cpu.dcache.overall_miss_rate          0.015513                       # miss rate for overall accesses
system.cpu.dcache.overall_misses                95210                       # number of overall misses
system.cpu.dcache.overall_mshr_hits              7490                       # number of overall MSHR hits
system.cpu.dcache.overall_mshr_miss_latency   1561178000                       # number of overall MSHR miss cycles
system.cpu.dcache.overall_mshr_miss_rate     0.014292                       # mshr miss rate for overall accesses
system.cpu.dcache.overall_mshr_misses           87719                       # number of overall MSHR misses
system.cpu.dcache.overall_mshr_uncacheable_latency            0                       # number of overall MSHR uncacheable cycles
system.cpu.dcache.overall_mshr_uncacheable_misses            0                       # number of overall MSHR uncacheable misses
system.cpu.dcache.prefetch_accuracy          no_value                       # ratio of good prefetches to total prefetches
system.cpu.dcache.prefetch_hits                     0                       # number of prefetched blocks that were accessed
system.cpu.dcache.replacements                  85974                       # number of replacements
system.cpu.dcache.sampled_refs                  86998                       # Sample count of references to valid blocks.
system.cpu.dcache.soft_prefetch_mshr_full            0                       # number of mshr full events for SW prefetching instrutions
system.cpu.dcache.tagsinuse               1004.196850                       # Cycle average of tags in use
system.cpu.dcache.total_refs                  6043343                       # Total number of references to valid blocks.
system.cpu.dcache.warmup_cycle           502121230000                       # Cycle when the warmup percentage was hit.
system.cpu.dcache.writebacks                     3598                       # number of writebacks
system.cpu.dtb.data_accesses                        1                       # DTB accesses
system.cpu.dtb.data_acv                             0                       # DTB access violations
system.cpu.dtb.data_hits                            1                       # DTB hits
system.cpu.dtb.data_misses                          0                       # DTB misses
system.cpu.dtb.fetch_accesses                       0                       # ITB accesses
system.cpu.dtb.fetch_acv                            0                       # ITB acv
system.cpu.dtb.fetch_hits                           0                       # ITB hits
system.cpu.dtb.fetch_misses                         0                       # ITB misses
system.cpu.dtb.read_accesses                        0                       # DTB read accesses
system.cpu.dtb.read_acv                             0                       # DTB read access violations
system.cpu.dtb.read_hits                            0                       # DTB read hits
system.cpu.dtb.read_misses                          0                       # DTB read misses
system.cpu.dtb.write_accesses                       1                       # DTB write accesses
system.cpu.dtb.write_acv                            0                       # DTB write access violations
system.cpu.dtb.write_hits                           1                       # DTB write hits
system.cpu.dtb.write_misses                         0                       # DTB write misses
system.cpu.icache.ReadReq_accesses           12223766                       # number of ReadReq accesses(hits+misses)
system.cpu.icache.ReadReq_avg_miss_latency 48461.538462                       # average ReadReq miss latency
system.cpu.icache.ReadReq_avg_mshr_miss_latency        57125                       # average ReadReq mshr miss latency
system.cpu.icache.ReadReq_hits               12223753                       # number of ReadReq hits
system.cpu.icache.ReadReq_miss_latency         630000                       # number of ReadReq miss cycles
system.cpu.icache.ReadReq_miss_rate          0.000001                       # miss rate for ReadReq accesses
system.cpu.icache.ReadReq_misses                   13                       # number of ReadReq misses
system.cpu.icache.ReadReq_mshr_hits                 4                       # number of ReadReq MSHR hits
system.cpu.icache.ReadReq_mshr_miss_latency       457000                       # number of ReadReq MSHR miss cycles
system.cpu.icache.ReadReq_mshr_miss_rate     0.000001                       # mshr miss rate for ReadReq accesses
system.cpu.icache.ReadReq_mshr_misses               8                       # number of ReadReq MSHR misses
system.cpu.icache.avg_blocked_cycles::no_mshrs     no_value                       # average number of cycles each access was blocked
system.cpu.icache.avg_blocked_cycles::no_targets        23000                       # average number of cycles each access was blocked
system.cpu.icache.avg_refs               1358194.777778                       # Average number of references to valid blocks.
system.cpu.icache.blocked::no_mshrs                 0                       # number of cycles access was blocked
system.cpu.icache.blocked::no_targets               1                       # number of cycles access was blocked
system.cpu.icache.blocked_cycles::no_mshrs            0                       # number of cycles access was blocked
system.cpu.icache.blocked_cycles::no_targets        23000                       # number of cycles access was blocked
system.cpu.icache.cache_copies                      0                       # number of cache copies performed
system.cpu.icache.demand_accesses            12223766                       # number of demand (read+write) accesses
system.cpu.icache.demand_avg_miss_latency 48461.538462                       # average overall miss latency
system.cpu.icache.demand_avg_mshr_miss_latency        57125                       # average overall mshr miss latency
system.cpu.icache.demand_hits                12223753                       # number of demand (read+write) hits
system.cpu.icache.demand_miss_latency          630000                       # number of demand (read+write) miss cycles
system.cpu.icache.demand_miss_rate           0.000001                       # miss rate for demand accesses
system.cpu.icache.demand_misses                    13                       # number of demand (read+write) misses
system.cpu.icache.demand_mshr_hits                  4                       # number of demand (read+write) MSHR hits
system.cpu.icache.demand_mshr_miss_latency       457000                       # number of demand (read+write) MSHR miss cycles
system.cpu.icache.demand_mshr_miss_rate      0.000001                       # mshr miss rate for demand accesses
system.cpu.icache.demand_mshr_misses                8                       # number of demand (read+write) MSHR misses
system.cpu.icache.fast_writes                       0                       # number of fast writes performed
system.cpu.icache.mshr_cap_events                   0                       # number of times MSHR cap was activated
system.cpu.icache.no_allocate_misses                0                       # Number of misses that were no-allocate
system.cpu.icache.occ_%::0                   0.012808                       # Average percentage of cache occupancy
system.cpu.icache.occ_blocks::0              6.557744                       # Average occupied blocks per context
system.cpu.icache.overall_accesses           12223766                       # number of overall (read+write) accesses
system.cpu.icache.overall_avg_miss_latency 48461.538462                       # average overall miss latency
system.cpu.icache.overall_avg_mshr_miss_latency        57125                       # average overall mshr miss latency
system.cpu.icache.overall_avg_mshr_uncacheable_latency     no_value                       # average overall mshr uncacheable latency
system.cpu.icache.overall_hits               12223753                       # number of overall hits
system.cpu.icache.overall_miss_latency         630000                       # number of overall miss cycles
system.cpu.icache.overall_miss_rate          0.000001                       # miss rate for overall accesses
system.cpu.icache.overall_misses                   13                       # number of overall misses
system.cpu.icache.overall_mshr_hits                 4                       # number of overall MSHR hits
system.cpu.icache.overall_mshr_miss_latency       457000                       # number of overall MSHR miss cycles
system.cpu.icache.overall_mshr_miss_rate     0.000001                       # mshr miss rate for overall accesses
system.cpu.icache.overall_mshr_misses               8                       # number of overall MSHR misses
system.cpu.icache.overall_mshr_uncacheable_latency            0                       # number of overall MSHR uncacheable cycles
system.cpu.icache.overall_mshr_uncacheable_misses            0                       # number of overall MSHR uncacheable misses
system.cpu.icache.prefetch_accuracy          no_value                       # ratio of good prefetches to total prefetches
system.cpu.icache.prefetch_hits                     0                       # number of prefetched blocks that were accessed
system.cpu.icache.replacements                      0                       # number of replacements
system.cpu.icache.sampled_refs                      9                       # Sample count of references to valid blocks.
system.cpu.icache.soft_prefetch_mshr_full            0                       # number of mshr full events for SW prefetching instrutions
system.cpu.icache.tagsinuse                  6.557744                       # Cycle average of tags in use
system.cpu.icache.total_refs                 12223753                       # Total number of references to valid blocks.
system.cpu.icache.warmup_cycle                      0                       # Cycle when the warmup percentage was hit.
system.cpu.icache.writebacks                        0                       # number of writebacks
system.cpu.idle_fraction                            0                       # Percentage of idle cycles
system.cpu.itb.data_accesses                        0                       # DTB accesses
system.cpu.itb.data_acv                             0                       # DTB access violations
system.cpu.itb.data_hits                            0                       # DTB hits
system.cpu.itb.data_misses                          0                       # DTB misses
system.cpu.itb.fetch_accesses                       2                       # ITB accesses
system.cpu.itb.fetch_acv                            0                       # ITB acv
system.cpu.itb.fetch_hits                           2                       # ITB hits
system.cpu.itb.fetch_misses                         0                       # ITB misses
system.cpu.itb.read_accesses                        0                       # DTB read accesses
system.cpu.itb.read_acv                             0                       # DTB read access violations
system.cpu.itb.read_hits                            0                       # DTB read hits
system.cpu.itb.read_misses                          0                       # DTB read misses
system.cpu.itb.write_accesses                       0                       # DTB write accesses
system.cpu.itb.write_acv                            0                       # DTB write access violations
system.cpu.itb.write_hits                           0                       # DTB write hits
system.cpu.itb.write_misses                         0                       # DTB write misses
system.cpu.not_idle_fraction                        1                       # Percentage of non-idle cycles
system.cpu.numCycles                                2                       # number of cpu cycles simulated
system.cpu.num_insts                                2                       # Number of instructions executed
system.cpu.num_refs                                 1                       # Number of memory references
system.cpu.workload.PROG:num_syscalls               0                       # Number of system calls
system.l2.HardPFReq_avg_mshr_miss_latency 40144.065231                       # average HardPFReq mshr miss latency
system.l2.HardPFReq_mshr_miss_latency       520026221                       # number of HardPFReq MSHR miss cycles
system.l2.HardPFReq_mshr_miss_rate                inf                       # mshr miss rate for HardPFReq accesses
system.l2.HardPFReq_mshr_misses                 12954                       # number of HardPFReq MSHR misses
system.l2.ReadExReq_accesses                     2920                       # number of ReadExReq accesses(hits+misses)
system.l2.ReadExReq_avg_miss_latency     56814.207650                       # average ReadExReq miss latency
system.l2.ReadExReq_avg_mshr_miss_latency 41110.958904                       # average ReadExReq mshr miss latency
system.l2.ReadExReq_hits                         2554                       # number of ReadExReq hits
system.l2.ReadExReq_miss_latency             20794000                       # number of ReadExReq miss cycles
system.l2.ReadExReq_miss_rate                0.125342                       # miss rate for ReadExReq accesses
system.l2.ReadExReq_misses                        366                       # number of ReadExReq misses
system.l2.ReadExReq_mshr_miss_latency        15005500                       # number of ReadExReq MSHR miss cycles
system.l2.ReadExReq_mshr_miss_rate           0.125000                       # mshr miss rate for ReadExReq accesses
system.l2.ReadExReq_mshr_misses                   365                       # number of ReadExReq MSHR misses
system.l2.ReadReq_accesses                      84087                       # number of ReadReq accesses(hits+misses)
system.l2.ReadReq_avg_miss_latency       58378.343089                       # average ReadReq miss latency
system.l2.ReadReq_avg_mshr_miss_latency  42589.989109                       # average ReadReq mshr miss latency
system.l2.ReadReq_hits                          72982                       # number of ReadReq hits
system.l2.ReadReq_miss_latency              648291500                       # number of ReadReq miss cycles
system.l2.ReadReq_miss_rate                  0.132066                       # miss rate for ReadReq accesses
system.l2.ReadReq_misses                        11105                       # number of ReadReq misses
system.l2.ReadReq_mshr_hits                        86                       # number of ReadReq MSHR hits
system.l2.ReadReq_mshr_miss_latency         469256500                       # number of ReadReq MSHR miss cycles
system.l2.ReadReq_mshr_miss_rate             0.131031                       # mshr miss rate for ReadReq accesses
system.l2.ReadReq_mshr_misses                   11018                       # number of ReadReq MSHR misses
system.l2.UpgradeReq_accesses                     722                       # number of UpgradeReq accesses(hits+misses)
system.l2.UpgradeReq_avg_miss_latency    56734.072022                       # average UpgradeReq miss latency
system.l2.UpgradeReq_avg_mshr_miss_latency 40750.692521                       # average UpgradeReq mshr miss latency
system.l2.UpgradeReq_miss_latency            40962000                       # number of UpgradeReq miss cycles
system.l2.UpgradeReq_miss_rate                      1                       # miss rate for UpgradeReq accesses
system.l2.UpgradeReq_misses                       722                       # number of UpgradeReq misses
system.l2.UpgradeReq_mshr_miss_latency       29422000                       # number of UpgradeReq MSHR miss cycles
system.l2.UpgradeReq_mshr_miss_rate                 1                       # mshr miss rate for UpgradeReq accesses
system.l2.UpgradeReq_mshr_misses                  722                       # number of UpgradeReq MSHR misses
system.l2.Writeback_accesses                     3598                       # number of Writeback accesses(hits+misses)
system.l2.Writeback_hits                         3598                       # number of Writeback hits
system.l2.avg_blocked_cycles::no_mshrs       no_value                       # average number of cycles each access was blocked
system.l2.avg_blocked_cycles::no_targets     no_value                       # average number of cycles each access was blocked
system.l2.avg_refs                           3.067427                       # Average number of references to valid blocks.
system.l2.blocked::no_mshrs                         0                       # number of cycles access was blocked
system.l2.blocked::no_targets                       0                       # number of cycles access was blocked
system.l2.blocked_cycles::no_mshrs                  0                       # number of cycles access was blocked
system.l2.blocked_cycles::no_targets                0                       # number of cycles access was blocked
system.l2.cache_copies                              0                       # number of cache copies performed
system.l2.demand_accesses                       87007                       # number of demand (read+write) accesses
system.l2.demand_avg_miss_latency        58328.436928                       # average overall miss latency
system.l2.demand_avg_mshr_miss_latency   42542.563472                       # average overall mshr miss latency
system.l2.demand_hits                           75536                       # number of demand (read+write) hits
system.l2.demand_miss_latency               669085500                       # number of demand (read+write) miss cycles
system.l2.demand_miss_rate                   0.131840                       # miss rate for demand accesses
system.l2.demand_misses                         11471                       # number of demand (read+write) misses
system.l2.demand_mshr_hits                         86                       # number of demand (read+write) MSHR hits
system.l2.demand_mshr_miss_latency          484262000                       # number of demand (read+write) MSHR miss cycles
system.l2.demand_mshr_miss_rate              0.130829                       # mshr miss rate for demand accesses
system.l2.demand_mshr_misses                    11383                       # number of demand (read+write) MSHR misses
system.l2.fast_writes                               0                       # number of fast writes performed
system.l2.mshr_cap_events                           0                       # number of times MSHR cap was activated
system.l2.no_allocate_misses                        0                       # Number of misses that were no-allocate
system.l2.occ_%::0                           0.541922                       # Average percentage of cache occupancy
system.l2.occ_%::1                           0.047983                       # Average percentage of cache occupancy
system.l2.occ_blocks::0                   8878.858159                       # Average occupied blocks per context
system.l2.occ_blocks::1                    786.161193                       # Average occupied blocks per context
system.l2.overall_accesses                      87007                       # number of overall (read+write) accesses
system.l2.overall_avg_miss_latency       58328.436928                       # average overall miss latency
system.l2.overall_avg_mshr_miss_latency  41265.900522                       # average overall mshr miss latency
system.l2.overall_avg_mshr_uncacheable_latency     no_value                       # average overall mshr uncacheable latency
system.l2.overall_hits                          75536                       # number of overall hits
system.l2.overall_miss_latency              669085500                       # number of overall miss cycles
system.l2.overall_miss_rate                  0.131840                       # miss rate for overall accesses
system.l2.overall_misses                        11471                       # number of overall misses
system.l2.overall_mshr_hits                        86                       # number of overall MSHR hits
system.l2.overall_mshr_miss_latency        1004288221                       # number of overall MSHR miss cycles
system.l2.overall_mshr_miss_rate             0.279713                       # mshr miss rate for overall accesses
system.l2.overall_mshr_misses                   24337                       # number of overall MSHR misses
system.l2.overall_mshr_uncacheable_latency            0                       # number of overall MSHR uncacheable cycles
system.l2.overall_mshr_uncacheable_misses            0                       # number of overall MSHR uncacheable misses
system.l2.prefetch_accuracy                  0.766945                       # ratio of good prefetches to total prefetches
system.l2.prefetch_hits                          9935                       # number of prefetched blocks that were accessed
system.l2.prefetcher.num_hwpf_already_in_prefetcher          705                       # number of hwpf that were already in the prefetch queue
system.l2.prefetcher.num_hwpf_evicted               0                       # number of hwpf removed due to no buffer left
system.l2.prefetcher.num_hwpf_identified        14086                       # number of hwpf identified
system.l2.prefetcher.num_hwpf_issued            13250                       # number of hwpf issued
system.l2.prefetcher.num_hwpf_removed_MSHR_hit          131                       # number of hwpf removed because MSHR allocated
system.l2.prefetcher.num_hwpf_span_page             0                       # number of hwpf spanning a virtual page
system.l2.prefetcher.num_hwpf_squashed_from_miss            0                       # number of hwpf that got squashed due to a miss aborting calculation time
system.l2.replacements                           9355                       # number of replacements
system.l2.sampled_refs                          24278                       # Sample count of references to valid blocks.
system.l2.soft_prefetch_mshr_full                   0                       # number of mshr full events for SW prefetching instrutions
system.l2.tagsinuse                       9665.019351                       # Cycle average of tags in use
system.l2.total_refs                            74471                       # Total number of references to valid blocks.
system.l2.warmup_cycle                              0                       # Cycle when the warmup percentage was hit.
system.l2.writebacks                             1297                       # number of writebacks
system.switch_cpus.dtb.data_accesses          2972120                       # DTB accesses
system.switch_cpus.dtb.data_acv                     0                       # DTB access violations
system.switch_cpus.dtb.data_hits              2969257                       # DTB hits
system.switch_cpus.dtb.data_misses               2863                       # DTB misses
system.switch_cpus.dtb.fetch_accesses               0                       # ITB accesses
system.switch_cpus.dtb.fetch_acv                    0                       # ITB acv
system.switch_cpus.dtb.fetch_hits                   0                       # ITB hits
system.switch_cpus.dtb.fetch_misses                 0                       # ITB misses
system.switch_cpus.dtb.read_accesses          1546660                       # DTB read accesses
system.switch_cpus.dtb.read_acv                     0                       # DTB read access violations
system.switch_cpus.dtb.read_hits              1543848                       # DTB read hits
system.switch_cpus.dtb.read_misses               2812                       # DTB read misses
system.switch_cpus.dtb.write_accesses         1425460                       # DTB write accesses
system.switch_cpus.dtb.write_acv                    0                       # DTB write access violations
system.switch_cpus.dtb.write_hits             1425409                       # DTB write hits
system.switch_cpus.dtb.write_misses                51                       # DTB write misses
system.switch_cpus.idle_fraction                    1                       # Percentage of idle cycles
system.switch_cpus.itb.data_accesses                0                       # DTB accesses
system.switch_cpus.itb.data_acv                     0                       # DTB access violations
system.switch_cpus.itb.data_hits                    0                       # DTB hits
system.switch_cpus.itb.data_misses                  0                       # DTB misses
system.switch_cpus.itb.fetch_accesses        10002866                       # ITB accesses
system.switch_cpus.itb.fetch_acv                    0                       # ITB acv
system.switch_cpus.itb.fetch_hits            10002865                       # ITB hits
system.switch_cpus.itb.fetch_misses                 1                       # ITB misses
system.switch_cpus.itb.read_accesses                0                       # DTB read accesses
system.switch_cpus.itb.read_acv                     0                       # DTB read access violations
system.switch_cpus.itb.read_hits                    0                       # DTB read hits
system.switch_cpus.itb.read_misses                  0                       # DTB read misses
system.switch_cpus.itb.write_accesses               0                       # DTB write accesses
system.switch_cpus.itb.write_acv                    0                       # DTB write access violations
system.switch_cpus.itb.write_hits                   0                       # DTB write hits
system.switch_cpus.itb.write_misses                 0                       # DTB write misses
system.switch_cpus.not_idle_fraction                0                       # Percentage of non-idle cycles
system.switch_cpus.numCycles                 27637046                       # number of cpu cycles simulated
system.switch_cpus.num_insts                 10000001                       # Number of instructions executed
system.switch_cpus.num_refs                   2972120                       # Number of memory references
system.switch_cpus_1.BPredUnit.BTBCorrect            0                       # Number of correct BTB predictions (this stat may not work properly.
system.switch_cpus_1.BPredUnit.BTBHits        2068589                       # Number of BTB hits
system.switch_cpus_1.BPredUnit.BTBLookups      2130351                       # Number of BTB lookups
system.switch_cpus_1.BPredUnit.RASInCorrect            0                       # Number of incorrect RAS predictions.
system.switch_cpus_1.BPredUnit.condIncorrect       159066                       # Number of conditional branches incorrect
system.switch_cpus_1.BPredUnit.condPredicted      2146748                       # Number of conditional branches predicted
system.switch_cpus_1.BPredUnit.lookups        2300780                       # Number of BP lookups
system.switch_cpus_1.BPredUnit.usedRAS              0                       # Number of times the RAS was used to get a target.
system.switch_cpus_1.commit.COM:branches      1623752                       # Number of branches committed
system.switch_cpus_1.commit.COM:bw_lim_events        91163                       # number cycles where commit BW limit reached
system.switch_cpus_1.commit.COM:bw_limited            0                       # number of insts not committed due to BW limits
system.switch_cpus_1.commit.COM:committed_per_cycle::samples      7714452                       # Number of insts commited each cycle
system.switch_cpus_1.commit.COM:committed_per_cycle::mean     1.347926                       # Number of insts commited each cycle
system.switch_cpus_1.commit.COM:committed_per_cycle::stdev     1.777320                       # Number of insts commited each cycle
system.switch_cpus_1.commit.COM:committed_per_cycle::underflows            0      0.00%      0.00% # Number of insts commited each cycle
system.switch_cpus_1.commit.COM:committed_per_cycle::0      3130903     40.58%     40.58% # Number of insts commited each cycle
system.switch_cpus_1.commit.COM:committed_per_cycle::1      2848802     36.93%     77.51% # Number of insts commited each cycle
system.switch_cpus_1.commit.COM:committed_per_cycle::2       168091      2.18%     79.69% # Number of insts commited each cycle
system.switch_cpus_1.commit.COM:committed_per_cycle::3        74447      0.97%     80.66% # Number of insts commited each cycle
system.switch_cpus_1.commit.COM:committed_per_cycle::4       757205      9.82%     90.47% # Number of insts commited each cycle
system.switch_cpus_1.commit.COM:committed_per_cycle::5       634490      8.22%     98.70% # Number of insts commited each cycle
system.switch_cpus_1.commit.COM:committed_per_cycle::6         5848      0.08%     98.77% # Number of insts commited each cycle
system.switch_cpus_1.commit.COM:committed_per_cycle::7         3503      0.05%     98.82% # Number of insts commited each cycle
system.switch_cpus_1.commit.COM:committed_per_cycle::8        91163      1.18%    100.00% # Number of insts commited each cycle
system.switch_cpus_1.commit.COM:committed_per_cycle::overflows            0      0.00%    100.00% # Number of insts commited each cycle
system.switch_cpus_1.commit.COM:committed_per_cycle::min_value            0                       # Number of insts commited each cycle
system.switch_cpus_1.commit.COM:committed_per_cycle::max_value            8                       # Number of insts commited each cycle
system.switch_cpus_1.commit.COM:committed_per_cycle::total      7714452                       # Number of insts commited each cycle
system.switch_cpus_1.commit.COM:count        10398508                       # Number of instructions committed
system.switch_cpus_1.commit.COM:loads         1606582                       # Number of loads committed
system.switch_cpus_1.commit.COM:membars             0                       # Number of memory barriers committed
system.switch_cpus_1.commit.COM:refs          3004003                       # Number of memory references committed
system.switch_cpus_1.commit.COM:swp_count            0                       # Number of s/w prefetches committed
system.switch_cpus_1.commit.branchMispredicts       159062                       # The number of times a branch was mispredicted
system.switch_cpus_1.commit.commitCommittedInsts     10398508                       # The number of committed instructions
system.switch_cpus_1.commit.commitSquashedInsts      2785176                       # The number of squashed insts skipped by commit
system.switch_cpus_1.committedInsts          10000000                       # Number of Instructions Simulated
system.switch_cpus_1.committedInsts_total     10000000                       # Number of Instructions Simulated
system.switch_cpus_1.cpi                     0.818924                       # CPI: Cycles Per Instruction
system.switch_cpus_1.cpi_total               0.818924                       # CPI: Total CPI of All Threads
system.switch_cpus_1.decode.DECODE:BlockedCycles        39019                       # Number of cycles decode is blocked
system.switch_cpus_1.decode.DECODE:BranchMispred          209                       # Number of times decode detected a branch misprediction
system.switch_cpus_1.decode.DECODE:BranchResolved       150165                       # Number of times decode resolved a branch
system.switch_cpus_1.decode.DECODE:DecodedInsts     14383459                       # Number of instructions handled by decode
system.switch_cpus_1.decode.DECODE:IdleCycles      4442657                       # Number of cycles decode is idle
system.switch_cpus_1.decode.DECODE:RunCycles      3231033                       # Number of cycles decode is running
system.switch_cpus_1.decode.DECODE:SquashCycles       463009                       # Number of cycles decode is squashing
system.switch_cpus_1.decode.DECODE:SquashedInsts            8                       # Number of squashed instructions handled by decode
system.switch_cpus_1.decode.DECODE:UnblockCycles         1742                       # Number of cycles decode is unblocking
system.switch_cpus_1.dtb.data_accesses        3524451                       # DTB accesses
system.switch_cpus_1.dtb.data_acv                   0                       # DTB access violations
system.switch_cpus_1.dtb.data_hits            3518070                       # DTB hits
system.switch_cpus_1.dtb.data_misses             6381                       # DTB misses
system.switch_cpus_1.dtb.fetch_accesses             0                       # ITB accesses
system.switch_cpus_1.dtb.fetch_acv                  0                       # ITB acv
system.switch_cpus_1.dtb.fetch_hits                 0                       # ITB hits
system.switch_cpus_1.dtb.fetch_misses               0                       # ITB misses
system.switch_cpus_1.dtb.read_accesses        1898786                       # DTB read accesses
system.switch_cpus_1.dtb.read_acv                   0                       # DTB read access violations
system.switch_cpus_1.dtb.read_hits            1892654                       # DTB read hits
system.switch_cpus_1.dtb.read_misses             6132                       # DTB read misses
system.switch_cpus_1.dtb.write_accesses       1625665                       # DTB write accesses
system.switch_cpus_1.dtb.write_acv                  0                       # DTB write access violations
system.switch_cpus_1.dtb.write_hits           1625416                       # DTB write hits
system.switch_cpus_1.dtb.write_misses             249                       # DTB write misses
system.switch_cpus_1.fetch.Branches           2300780                       # Number of branches that fetch encountered
system.switch_cpus_1.fetch.CacheLines         2220899                       # Number of cache lines fetched
system.switch_cpus_1.fetch.Cycles             5492795                       # Number of cycles fetch has run and was not squashing or blocked
system.switch_cpus_1.fetch.IcacheSquashes        42250                       # Number of outstanding Icache misses that were squashed
system.switch_cpus_1.fetch.Insts             14619053                       # Number of instructions fetch has processed
system.switch_cpus_1.fetch.SquashCycles        173890                       # Number of cycles fetch has spent squashing
system.switch_cpus_1.fetch.branchRate        0.280952                       # Number of branch fetches per cycle
system.switch_cpus_1.fetch.icacheStallCycles      2220899                       # Number of cycles fetch is stalled on an Icache miss
system.switch_cpus_1.fetch.predictedBranches      2068589                       # Number of branches that fetch has predicted taken
system.switch_cpus_1.fetch.rate              1.785155                       # Number of inst fetches per cycle
system.switch_cpus_1.fetch.rateDist::samples      8177461                       # Number of instructions fetched each cycle (Total)
system.switch_cpus_1.fetch.rateDist::mean     1.787725                       # Number of instructions fetched each cycle (Total)
system.switch_cpus_1.fetch.rateDist::stdev     2.706973                       # Number of instructions fetched each cycle (Total)
system.switch_cpus_1.fetch.rateDist::underflows            0      0.00%      0.00% # Number of instructions fetched each cycle (Total)
system.switch_cpus_1.fetch.rateDist::0        4905565     59.99%     59.99% # Number of instructions fetched each cycle (Total)
system.switch_cpus_1.fetch.rateDist::1         791579      9.68%     69.67% # Number of instructions fetched each cycle (Total)
system.switch_cpus_1.fetch.rateDist::2         170964      2.09%     71.76% # Number of instructions fetched each cycle (Total)
system.switch_cpus_1.fetch.rateDist::3          52651      0.64%     72.40% # Number of instructions fetched each cycle (Total)
system.switch_cpus_1.fetch.rateDist::4         544490      6.66%     79.06% # Number of instructions fetched each cycle (Total)
system.switch_cpus_1.fetch.rateDist::5         662847      8.11%     87.17% # Number of instructions fetched each cycle (Total)
system.switch_cpus_1.fetch.rateDist::6          29003      0.35%     87.52% # Number of instructions fetched each cycle (Total)
system.switch_cpus_1.fetch.rateDist::7         501516      6.13%     93.66% # Number of instructions fetched each cycle (Total)
system.switch_cpus_1.fetch.rateDist::8         518846      6.34%    100.00% # Number of instructions fetched each cycle (Total)
system.switch_cpus_1.fetch.rateDist::overflows            0      0.00%    100.00% # Number of instructions fetched each cycle (Total)
system.switch_cpus_1.fetch.rateDist::min_value            0                       # Number of instructions fetched each cycle (Total)
system.switch_cpus_1.fetch.rateDist::max_value            8                       # Number of instructions fetched each cycle (Total)
system.switch_cpus_1.fetch.rateDist::total      8177461                       # Number of instructions fetched each cycle (Total)
system.switch_cpus_1.idleCycles                 11775                       # Total number of cycles that the CPU has spent unscheduled due to idling
system.switch_cpus_1.iew.EXEC:branches        1978088                       # Number of branches executed
system.switch_cpus_1.iew.EXEC:nop              864733                       # number of nop insts executed
system.switch_cpus_1.iew.EXEC:rate           1.444292                       # Inst execution rate
system.switch_cpus_1.iew.EXEC:refs            3524451                       # number of memory reference insts executed
system.switch_cpus_1.iew.EXEC:stores          1625665                       # Number of stores executed
system.switch_cpus_1.iew.EXEC:swp                   0                       # number of swp insts executed
system.switch_cpus_1.iew.WB:consumers         8680470                       # num instructions consuming a value
system.switch_cpus_1.iew.WB:count            11753083                       # cumulative count of insts written-back
system.switch_cpus_1.iew.WB:fanout           0.765687                       # average fanout of values written-back
system.switch_cpus_1.iew.WB:penalized               0                       # number of instrctions required to write to 'other' IQ
system.switch_cpus_1.iew.WB:penalized_rate            0                       # fraction of instructions written-back that wrote to 'other' IQ
system.switch_cpus_1.iew.WB:producers         6646526                       # num instructions producing a value
system.switch_cpus_1.iew.WB:rate             1.435187                       # insts written-back per cycle
system.switch_cpus_1.iew.WB:sent             11761728                       # cumulative count of insts sent to commit
system.switch_cpus_1.iew.branchMispredicts       172380                       # Number of branch mispredicts detected at execute
system.switch_cpus_1.iew.iewBlockCycles          2317                       # Number of cycles IEW is blocking
system.switch_cpus_1.iew.iewDispLoadInsts      1986051                       # Number of dispatched load instructions
system.switch_cpus_1.iew.iewDispNonSpecInsts            0                       # Number of dispatched non-speculative instructions
system.switch_cpus_1.iew.iewDispSquashedInsts       391688                       # Number of squashed instructions skipped by dispatch
system.switch_cpus_1.iew.iewDispStoreInsts      1701211                       # Number of dispatched store instructions
system.switch_cpus_1.iew.iewDispatchedInsts     13278732                       # Number of instructions dispatched to IQ
system.switch_cpus_1.iew.iewExecLoadInsts      1898786                       # Number of load instructions executed
system.switch_cpus_1.iew.iewExecSquashedInsts       154659                       # Number of squashed instructions skipped in execute
system.switch_cpus_1.iew.iewExecutedInsts     11827649                       # Number of executed instructions
system.switch_cpus_1.iew.iewIQFullEvents           76                       # Number of times the IQ has become full, causing a stall
system.switch_cpus_1.iew.iewIdleCycles              0                       # Number of cycles IEW is idle
system.switch_cpus_1.iew.iewLSQFullEvents            0                       # Number of times the LSQ has become full, causing a stall
system.switch_cpus_1.iew.iewSquashCycles       463009                       # Number of cycles IEW is squashing
system.switch_cpus_1.iew.iewUnblockCycles          100                       # Number of cycles IEW is unblocking
system.switch_cpus_1.iew.lsq.thread.0.blockedLoads            0                       # Number of blocked loads due to partial load-store forwarding
system.switch_cpus_1.iew.lsq.thread.0.cacheBlocked          253                       # Number of times an access to memory failed due to the cache being blocked
system.switch_cpus_1.iew.lsq.thread.0.forwLoads       121647                       # Number of loads that had data forwarded from stores
system.switch_cpus_1.iew.lsq.thread.0.ignoredResponses        10600                       # Number of memory responses ignored because the instruction is squashed
system.switch_cpus_1.iew.lsq.thread.0.invAddrLoads            0                       # Number of loads ignored due to an invalid address
system.switch_cpus_1.iew.lsq.thread.0.invAddrSwpfs            0                       # Number of software prefetches ignored due to an invalid address
system.switch_cpus_1.iew.lsq.thread.0.memOrderViolation        12092                       # Number of memory ordering violations
system.switch_cpus_1.iew.lsq.thread.0.rescheduledLoads            0                       # Number of loads that were rescheduled
system.switch_cpus_1.iew.lsq.thread.0.squashedLoads       379468                       # Number of loads squashed
system.switch_cpus_1.iew.lsq.thread.0.squashedStores       303789                       # Number of stores squashed
system.switch_cpus_1.iew.memOrderViolationEvents        12092                       # Number of memory order violations
system.switch_cpus_1.iew.predictedNotTakenIncorrect        27740                       # Number of branches that were predicted not taken incorrectly
system.switch_cpus_1.iew.predictedTakenIncorrect       144640                       # Number of branches that were predicted taken incorrectly
system.switch_cpus_1.ipc                     1.221115                       # IPC: Instructions Per Cycle
system.switch_cpus_1.ipc_total               1.221115                       # IPC: Total IPC of All Threads
system.switch_cpus_1.iq.ISSUE:FU_type_0::No_OpClass            0      0.00%      0.00% # Type of FU issued
system.switch_cpus_1.iq.ISSUE:FU_type_0::IntAlu      8419518     70.27%     70.27% # Type of FU issued
system.switch_cpus_1.iq.ISSUE:FU_type_0::IntMult            0      0.00%     70.27% # Type of FU issued
system.switch_cpus_1.iq.ISSUE:FU_type_0::IntDiv            0      0.00%     70.27% # Type of FU issued
system.switch_cpus_1.iq.ISSUE:FU_type_0::FloatAdd            0      0.00%     70.27% # Type of FU issued
system.switch_cpus_1.iq.ISSUE:FU_type_0::FloatCmp            0      0.00%     70.27% # Type of FU issued
system.switch_cpus_1.iq.ISSUE:FU_type_0::FloatCvt            0      0.00%     70.27% # Type of FU issued
system.switch_cpus_1.iq.ISSUE:FU_type_0::FloatMult            0      0.00%     70.27% # Type of FU issued
system.switch_cpus_1.iq.ISSUE:FU_type_0::FloatDiv            0      0.00%     70.27% # Type of FU issued
system.switch_cpus_1.iq.ISSUE:FU_type_0::FloatSqrt            0      0.00%     70.27% # Type of FU issued
system.switch_cpus_1.iq.ISSUE:FU_type_0::MemRead      1913619     15.97%     86.24% # Type of FU issued
system.switch_cpus_1.iq.ISSUE:FU_type_0::MemWrite      1649172     13.76%    100.00% # Type of FU issued
system.switch_cpus_1.iq.ISSUE:FU_type_0::IprAccess            0      0.00%    100.00% # Type of FU issued
system.switch_cpus_1.iq.ISSUE:FU_type_0::InstPrefetch            0      0.00%    100.00% # Type of FU issued
system.switch_cpus_1.iq.ISSUE:FU_type_0::total     11982309                       # Type of FU issued
system.switch_cpus_1.iq.ISSUE:fu_busy_cnt         4493                       # FU busy when requested
system.switch_cpus_1.iq.ISSUE:fu_busy_rate     0.000375                       # FU busy rate (busy events/executed inst)
system.switch_cpus_1.iq.ISSUE:fu_full::No_OpClass            0      0.00%      0.00% # attempts to use FU when none available
system.switch_cpus_1.iq.ISSUE:fu_full::IntAlu         4488     99.89%     99.89% # attempts to use FU when none available
system.switch_cpus_1.iq.ISSUE:fu_full::IntMult            0      0.00%     99.89% # attempts to use FU when none available
system.switch_cpus_1.iq.ISSUE:fu_full::IntDiv            0      0.00%     99.89% # attempts to use FU when none available
system.switch_cpus_1.iq.ISSUE:fu_full::FloatAdd            0      0.00%     99.89% # attempts to use FU when none available
system.switch_cpus_1.iq.ISSUE:fu_full::FloatCmp            0      0.00%     99.89% # attempts to use FU when none available
system.switch_cpus_1.iq.ISSUE:fu_full::FloatCvt            0      0.00%     99.89% # attempts to use FU when none available
system.switch_cpus_1.iq.ISSUE:fu_full::FloatMult            0      0.00%     99.89% # attempts to use FU when none available
system.switch_cpus_1.iq.ISSUE:fu_full::FloatDiv            0      0.00%     99.89% # attempts to use FU when none available
system.switch_cpus_1.iq.ISSUE:fu_full::FloatSqrt            0      0.00%     99.89% # attempts to use FU when none available
system.switch_cpus_1.iq.ISSUE:fu_full::MemRead            4      0.09%     99.98% # attempts to use FU when none available
system.switch_cpus_1.iq.ISSUE:fu_full::MemWrite            1      0.02%    100.00% # attempts to use FU when none available
system.switch_cpus_1.iq.ISSUE:fu_full::IprAccess            0      0.00%    100.00% # attempts to use FU when none available
system.switch_cpus_1.iq.ISSUE:fu_full::InstPrefetch            0      0.00%    100.00% # attempts to use FU when none available
system.switch_cpus_1.iq.ISSUE:issued_per_cycle::samples      8177461                       # Number of insts issued each cycle
system.switch_cpus_1.iq.ISSUE:issued_per_cycle::mean     1.465285                       # Number of insts issued each cycle
system.switch_cpus_1.iq.ISSUE:issued_per_cycle::stdev     1.310854                       # Number of insts issued each cycle
system.switch_cpus_1.iq.ISSUE:issued_per_cycle::underflows            0      0.00%      0.00% # Number of insts issued each cycle
system.switch_cpus_1.iq.ISSUE:issued_per_cycle::0      2135189     26.11%     26.11% # Number of insts issued each cycle
system.switch_cpus_1.iq.ISSUE:issued_per_cycle::1      2520155     30.82%     56.93% # Number of insts issued each cycle
system.switch_cpus_1.iq.ISSUE:issued_per_cycle::2      2319654     28.37%     85.30% # Number of insts issued each cycle
system.switch_cpus_1.iq.ISSUE:issued_per_cycle::3       186769      2.28%     87.58% # Number of insts issued each cycle
system.switch_cpus_1.iq.ISSUE:issued_per_cycle::4       851231     10.41%     97.99% # Number of insts issued each cycle
system.switch_cpus_1.iq.ISSUE:issued_per_cycle::5       134008      1.64%     99.63% # Number of insts issued each cycle
system.switch_cpus_1.iq.ISSUE:issued_per_cycle::6        25699      0.31%     99.94% # Number of insts issued each cycle
system.switch_cpus_1.iq.ISSUE:issued_per_cycle::7         4667      0.06%    100.00% # Number of insts issued each cycle
system.switch_cpus_1.iq.ISSUE:issued_per_cycle::8           89      0.00%    100.00% # Number of insts issued each cycle
system.switch_cpus_1.iq.ISSUE:issued_per_cycle::overflows            0      0.00%    100.00% # Number of insts issued each cycle
system.switch_cpus_1.iq.ISSUE:issued_per_cycle::min_value            0                       # Number of insts issued each cycle
system.switch_cpus_1.iq.ISSUE:issued_per_cycle::max_value            8                       # Number of insts issued each cycle
system.switch_cpus_1.iq.ISSUE:issued_per_cycle::total      8177461                       # Number of insts issued each cycle
system.switch_cpus_1.iq.ISSUE:rate           1.463178                       # Inst issue rate
system.switch_cpus_1.iq.iqInstsAdded         12413999                       # Number of instructions added to the IQ (excludes non-spec)
system.switch_cpus_1.iq.iqInstsIssued        11982309                       # Number of instructions issued
system.switch_cpus_1.iq.iqSquashedInstsExamined      2131255                       # Number of squashed instructions iterated over during squash; mainly for profiling
system.switch_cpus_1.iq.iqSquashedInstsIssued         1060                       # Number of squashed instructions issued
system.switch_cpus_1.iq.iqSquashedOperandsExamined       797416                       # Number of squashed operands that are examined and possibly removed from graph
system.switch_cpus_1.itb.data_accesses              0                       # DTB accesses
system.switch_cpus_1.itb.data_acv                   0                       # DTB access violations
system.switch_cpus_1.itb.data_hits                  0                       # DTB hits
system.switch_cpus_1.itb.data_misses                0                       # DTB misses
system.switch_cpus_1.itb.fetch_accesses       2220900                       # ITB accesses
system.switch_cpus_1.itb.fetch_acv                  0                       # ITB acv
system.switch_cpus_1.itb.fetch_hits           2220899                       # ITB hits
system.switch_cpus_1.itb.fetch_misses               1                       # ITB misses
system.switch_cpus_1.itb.read_accesses              0                       # DTB read accesses
system.switch_cpus_1.itb.read_acv                   0                       # DTB read access violations
system.switch_cpus_1.itb.read_hits                  0                       # DTB read hits
system.switch_cpus_1.itb.read_misses                0                       # DTB read misses
system.switch_cpus_1.itb.write_accesses             0                       # DTB write accesses
system.switch_cpus_1.itb.write_acv                  0                       # DTB write access violations
system.switch_cpus_1.itb.write_hits                 0                       # DTB write hits
system.switch_cpus_1.itb.write_misses               0                       # DTB write misses
system.switch_cpus_1.memDep0.conflictingLoads       611643                       # Number of conflicting loads.
system.switch_cpus_1.memDep0.conflictingStores       564283                       # Number of conflicting stores.
system.switch_cpus_1.memDep0.insertedLoads      1986051                       # Number of loads inserted to the mem dependence unit.
system.switch_cpus_1.memDep0.insertedStores      1701211                       # Number of stores inserted to the mem dependence unit.
system.switch_cpus_1.numCycles                8189236                       # number of cpu cycles simulated
system.switch_cpus_1.rename.RENAME:BlockCycles        28463                       # Number of cycles rename is blocking
system.switch_cpus_1.rename.RENAME:CommittedMaps      6978824                       # Number of HB maps that are committed
system.switch_cpus_1.rename.RENAME:IQFullEvents          292                       # Number of times rename has blocked due to IQ full
system.switch_cpus_1.rename.RENAME:IdleCycles      4492828                       # Number of cycles rename is idle
system.switch_cpus_1.rename.RENAME:LSQFullEvents         9713                       # Number of times rename has blocked due to LSQ full
system.switch_cpus_1.rename.RENAME:ROBFullEvents         1403                       # Number of times rename has blocked due to ROB full
system.switch_cpus_1.rename.RENAME:RenameLookups     18849936                       # Number of register rename lookups that rename has made
system.switch_cpus_1.rename.RENAME:RenamedInsts     14181389                       # Number of instructions processed by rename
system.switch_cpus_1.rename.RENAME:RenamedOperands      9262544                       # Number of destination operands rename has renamed
system.switch_cpus_1.rename.RENAME:RunCycles      3182132                       # Number of cycles rename is running
system.switch_cpus_1.rename.RENAME:SquashCycles       463009                       # Number of cycles rename is squashing
system.switch_cpus_1.rename.RENAME:UnblockCycles        11028                       # Number of cycles rename is unblocking
system.switch_cpus_1.rename.RENAME:UndoneMaps      2283706                       # Number of HB maps that are undone due to squashing
system.switch_cpus_1.rename.RENAME:serializeStallCycles            0                       # count of cycles rename stalled for serializing inst
system.switch_cpus_1.rename.RENAME:serializingInsts            0                       # count of serializing insts renamed
system.switch_cpus_1.rename.RENAME:skidInsts        21900                       # count of insts added to the skid buffer
system.switch_cpus_1.rename.RENAME:tempSerializingInsts            0                       # count of temporary serializing insts renamed
system.switch_cpus_1.timesIdled                   510                       # Number of times that the entire CPU went into an idle state and unscheduled itself

---------- End Simulation Statistics   ----------
