
---------- Begin Simulation Statistics ----------
host_inst_rate                                 116579                       # Simulator instruction rate (inst/s)
host_mem_usage                                 333836                       # Number of bytes of host memory used
host_seconds                                   171.56                       # Real time elapsed on the host
host_tick_rate                              708544214                       # Simulator tick rate (ticks/s)
sim_freq                                 1000000000000                       # Frequency of simulated ticks
sim_insts                                    20000003                       # Number of instructions simulated
sim_seconds                                  0.121556                       # Number of seconds simulated
sim_ticks                                121556018000                       # Number of ticks simulated
system.cpu.dcache.ReadReq_accesses            5609725                       # number of ReadReq accesses(hits+misses)
system.cpu.dcache.ReadReq_avg_miss_latency 39054.101873                       # average ReadReq miss latency
system.cpu.dcache.ReadReq_avg_mshr_miss_latency 35921.210998                       # average ReadReq mshr miss latency
system.cpu.dcache.ReadReq_hits                2084348                       # number of ReadReq hits
system.cpu.dcache.ReadReq_miss_latency   137680432500                       # number of ReadReq miss cycles
system.cpu.dcache.ReadReq_miss_rate          0.628440                       # miss rate for ReadReq accesses
system.cpu.dcache.ReadReq_misses              3525377                       # number of ReadReq misses
system.cpu.dcache.ReadReq_mshr_hits              4067                       # number of ReadReq MSHR hits
system.cpu.dcache.ReadReq_mshr_miss_latency 126489719500                       # number of ReadReq MSHR miss cycles
system.cpu.dcache.ReadReq_mshr_miss_rate     0.627715                       # mshr miss rate for ReadReq accesses
system.cpu.dcache.ReadReq_mshr_misses         3521310                       # number of ReadReq MSHR misses
system.cpu.dcache.WriteReq_accesses            293301                       # number of WriteReq accesses(hits+misses)
system.cpu.dcache.WriteReq_avg_miss_latency 75335.040133                       # average WriteReq miss latency
system.cpu.dcache.WriteReq_avg_mshr_miss_latency 72663.029642                       # average WriteReq mshr miss latency
system.cpu.dcache.WriteReq_hits                285502                       # number of WriteReq hits
system.cpu.dcache.WriteReq_miss_latency     587537978                       # number of WriteReq miss cycles
system.cpu.dcache.WriteReq_miss_rate         0.026590                       # miss rate for WriteReq accesses
system.cpu.dcache.WriteReq_misses                7799                       # number of WriteReq misses
system.cpu.dcache.WriteReq_mshr_hits             2941                       # number of WriteReq MSHR hits
system.cpu.dcache.WriteReq_mshr_miss_latency    352996998                       # number of WriteReq MSHR miss cycles
system.cpu.dcache.WriteReq_mshr_miss_rate     0.016563                       # mshr miss rate for WriteReq accesses
system.cpu.dcache.WriteReq_mshr_misses           4858                       # number of WriteReq MSHR misses
system.cpu.dcache.avg_blocked_cycles::no_mshrs 15272.545455                       # average number of cycles each access was blocked
system.cpu.dcache.avg_blocked_cycles::no_targets 66967.536260                       # average number of cycles each access was blocked
system.cpu.dcache.avg_refs                   0.672570                       # Average number of references to valid blocks.
system.cpu.dcache.blocked::no_mshrs                11                       # number of cycles access was blocked
system.cpu.dcache.blocked::no_targets             524                       # number of cycles access was blocked
system.cpu.dcache.blocked_cycles::no_mshrs       167998                       # number of cycles access was blocked
system.cpu.dcache.blocked_cycles::no_targets     35090989                       # number of cycles access was blocked
system.cpu.dcache.cache_copies                      0                       # number of cache copies performed
system.cpu.dcache.demand_accesses             5903026                       # number of demand (read+write) accesses
system.cpu.dcache.demand_avg_miss_latency 39134.187054                       # average overall miss latency
system.cpu.dcache.demand_avg_mshr_miss_latency 35971.830184                       # average overall mshr miss latency
system.cpu.dcache.demand_hits                 2369850                       # number of demand (read+write) hits
system.cpu.dcache.demand_miss_latency    138267970478                       # number of demand (read+write) miss cycles
system.cpu.dcache.demand_miss_rate           0.598536                       # miss rate for demand accesses
system.cpu.dcache.demand_misses               3533176                       # number of demand (read+write) misses
system.cpu.dcache.demand_mshr_hits               7008                       # number of demand (read+write) MSHR hits
system.cpu.dcache.demand_mshr_miss_latency 126842716498                       # number of demand (read+write) MSHR miss cycles
system.cpu.dcache.demand_mshr_miss_rate      0.597349                       # mshr miss rate for demand accesses
system.cpu.dcache.demand_mshr_misses          3526168                       # number of demand (read+write) MSHR misses
system.cpu.dcache.fast_writes                       0                       # number of fast writes performed
system.cpu.dcache.mshr_cap_events                   0                       # number of times MSHR cap was activated
system.cpu.dcache.no_allocate_misses                0                       # Number of misses that were no-allocate
system.cpu.dcache.occ_%::0                   0.604730                       # Average percentage of cache occupancy
system.cpu.dcache.occ_blocks::0            619.243232                       # Average occupied blocks per context
system.cpu.dcache.overall_accesses            5903026                       # number of overall (read+write) accesses
system.cpu.dcache.overall_avg_miss_latency 39134.187054                       # average overall miss latency
system.cpu.dcache.overall_avg_mshr_miss_latency 35971.830184                       # average overall mshr miss latency
system.cpu.dcache.overall_avg_mshr_uncacheable_latency     no_value                       # average overall mshr uncacheable latency
system.cpu.dcache.overall_hits                2369850                       # number of overall hits
system.cpu.dcache.overall_miss_latency   138267970478                       # number of overall miss cycles
system.cpu.dcache.overall_miss_rate          0.598536                       # miss rate for overall accesses
system.cpu.dcache.overall_misses              3533176                       # number of overall misses
system.cpu.dcache.overall_mshr_hits              7008                       # number of overall MSHR hits
system.cpu.dcache.overall_mshr_miss_latency 126842716498                       # number of overall MSHR miss cycles
system.cpu.dcache.overall_mshr_miss_rate     0.597349                       # mshr miss rate for overall accesses
system.cpu.dcache.overall_mshr_misses         3526168                       # number of overall MSHR misses
system.cpu.dcache.overall_mshr_uncacheable_latency            0                       # number of overall MSHR uncacheable cycles
system.cpu.dcache.overall_mshr_uncacheable_misses            0                       # number of overall MSHR uncacheable misses
system.cpu.dcache.prefetch_accuracy          no_value                       # ratio of good prefetches to total prefetches
system.cpu.dcache.prefetch_hits                     0                       # number of prefetched blocks that were accessed
system.cpu.dcache.replacements                3524486                       # number of replacements
system.cpu.dcache.sampled_refs                3525337                       # Sample count of references to valid blocks.
system.cpu.dcache.soft_prefetch_mshr_full            0                       # number of mshr full events for SW prefetching instrutions
system.cpu.dcache.tagsinuse                619.243232                       # Cycle average of tags in use
system.cpu.dcache.total_refs                  2371035                       # Total number of references to valid blocks.
system.cpu.dcache.warmup_cycle                      0                       # Cycle when the warmup percentage was hit.
system.cpu.dcache.writebacks                     4506                       # number of writebacks
system.cpu.dtb.data_accesses                        0                       # DTB accesses
system.cpu.dtb.data_acv                             0                       # DTB access violations
system.cpu.dtb.data_hits                            0                       # DTB hits
system.cpu.dtb.data_misses                          0                       # DTB misses
system.cpu.dtb.fetch_accesses                       0                       # ITB accesses
system.cpu.dtb.fetch_acv                            0                       # ITB acv
system.cpu.dtb.fetch_hits                           0                       # ITB hits
system.cpu.dtb.fetch_misses                         0                       # ITB misses
system.cpu.dtb.read_accesses                        0                       # DTB read accesses
system.cpu.dtb.read_acv                             0                       # DTB read access violations
system.cpu.dtb.read_hits                            0                       # DTB read hits
system.cpu.dtb.read_misses                          0                       # DTB read misses
system.cpu.dtb.write_accesses                       0                       # DTB write accesses
system.cpu.dtb.write_acv                            0                       # DTB write access violations
system.cpu.dtb.write_hits                           0                       # DTB write hits
system.cpu.dtb.write_misses                         0                       # DTB write misses
system.cpu.icache.ReadReq_accesses           13527647                       # number of ReadReq accesses(hits+misses)
system.cpu.icache.ReadReq_avg_miss_latency 38298.062998                       # average ReadReq miss latency
system.cpu.icache.ReadReq_avg_mshr_miss_latency 34441.819942                       # average ReadReq mshr miss latency
system.cpu.icache.ReadReq_hits               13522123                       # number of ReadReq hits
system.cpu.icache.ReadReq_miss_latency      211558500                       # number of ReadReq miss cycles
system.cpu.icache.ReadReq_miss_rate          0.000408                       # miss rate for ReadReq accesses
system.cpu.icache.ReadReq_misses                 5524                       # number of ReadReq misses
system.cpu.icache.ReadReq_mshr_hits               358                       # number of ReadReq MSHR hits
system.cpu.icache.ReadReq_mshr_miss_latency    177892000                       # number of ReadReq MSHR miss cycles
system.cpu.icache.ReadReq_mshr_miss_rate     0.000382                       # mshr miss rate for ReadReq accesses
system.cpu.icache.ReadReq_mshr_misses            5165                       # number of ReadReq MSHR misses
system.cpu.icache.avg_blocked_cycles::no_mshrs     no_value                       # average number of cycles each access was blocked
system.cpu.icache.avg_blocked_cycles::no_targets     no_value                       # average number of cycles each access was blocked
system.cpu.icache.avg_refs                2617.522842                       # Average number of references to valid blocks.
system.cpu.icache.blocked::no_mshrs                 0                       # number of cycles access was blocked
system.cpu.icache.blocked::no_targets               0                       # number of cycles access was blocked
system.cpu.icache.blocked_cycles::no_mshrs            0                       # number of cycles access was blocked
system.cpu.icache.blocked_cycles::no_targets            0                       # number of cycles access was blocked
system.cpu.icache.cache_copies                      0                       # number of cache copies performed
system.cpu.icache.demand_accesses            13527647                       # number of demand (read+write) accesses
system.cpu.icache.demand_avg_miss_latency 38298.062998                       # average overall miss latency
system.cpu.icache.demand_avg_mshr_miss_latency 34441.819942                       # average overall mshr miss latency
system.cpu.icache.demand_hits                13522123                       # number of demand (read+write) hits
system.cpu.icache.demand_miss_latency       211558500                       # number of demand (read+write) miss cycles
system.cpu.icache.demand_miss_rate           0.000408                       # miss rate for demand accesses
system.cpu.icache.demand_misses                  5524                       # number of demand (read+write) misses
system.cpu.icache.demand_mshr_hits                358                       # number of demand (read+write) MSHR hits
system.cpu.icache.demand_mshr_miss_latency    177892000                       # number of demand (read+write) MSHR miss cycles
system.cpu.icache.demand_mshr_miss_rate      0.000382                       # mshr miss rate for demand accesses
system.cpu.icache.demand_mshr_misses             5165                       # number of demand (read+write) MSHR misses
system.cpu.icache.fast_writes                       0                       # number of fast writes performed
system.cpu.icache.mshr_cap_events                   0                       # number of times MSHR cap was activated
system.cpu.icache.no_allocate_misses                0                       # Number of misses that were no-allocate
system.cpu.icache.occ_%::0                   0.362975                       # Average percentage of cache occupancy
system.cpu.icache.occ_blocks::0            185.843008                       # Average occupied blocks per context
system.cpu.icache.overall_accesses           13527647                       # number of overall (read+write) accesses
system.cpu.icache.overall_avg_miss_latency 38298.062998                       # average overall miss latency
system.cpu.icache.overall_avg_mshr_miss_latency 34441.819942                       # average overall mshr miss latency
system.cpu.icache.overall_avg_mshr_uncacheable_latency     no_value                       # average overall mshr uncacheable latency
system.cpu.icache.overall_hits               13522123                       # number of overall hits
system.cpu.icache.overall_miss_latency      211558500                       # number of overall miss cycles
system.cpu.icache.overall_miss_rate          0.000408                       # miss rate for overall accesses
system.cpu.icache.overall_misses                 5524                       # number of overall misses
system.cpu.icache.overall_mshr_hits               358                       # number of overall MSHR hits
system.cpu.icache.overall_mshr_miss_latency    177892000                       # number of overall MSHR miss cycles
system.cpu.icache.overall_mshr_miss_rate     0.000382                       # mshr miss rate for overall accesses
system.cpu.icache.overall_mshr_misses            5165                       # number of overall MSHR misses
system.cpu.icache.overall_mshr_uncacheable_latency            0                       # number of overall MSHR uncacheable cycles
system.cpu.icache.overall_mshr_uncacheable_misses            0                       # number of overall MSHR uncacheable misses
system.cpu.icache.prefetch_accuracy          no_value                       # ratio of good prefetches to total prefetches
system.cpu.icache.prefetch_hits                     0                       # number of prefetched blocks that were accessed
system.cpu.icache.replacements                   4957                       # number of replacements
system.cpu.icache.sampled_refs                   5166                       # Sample count of references to valid blocks.
system.cpu.icache.soft_prefetch_mshr_full            0                       # number of mshr full events for SW prefetching instrutions
system.cpu.icache.tagsinuse                185.843008                       # Cycle average of tags in use
system.cpu.icache.total_refs                 13522123                       # Total number of references to valid blocks.
system.cpu.icache.warmup_cycle                      0                       # Cycle when the warmup percentage was hit.
system.cpu.icache.writebacks                        0                       # number of writebacks
system.cpu.idle_fraction                            0                       # Percentage of idle cycles
system.cpu.itb.data_accesses                        0                       # DTB accesses
system.cpu.itb.data_acv                             0                       # DTB access violations
system.cpu.itb.data_hits                            0                       # DTB hits
system.cpu.itb.data_misses                          0                       # DTB misses
system.cpu.itb.fetch_accesses                       2                       # ITB accesses
system.cpu.itb.fetch_acv                            0                       # ITB acv
system.cpu.itb.fetch_hits                           2                       # ITB hits
system.cpu.itb.fetch_misses                         0                       # ITB misses
system.cpu.itb.read_accesses                        0                       # DTB read accesses
system.cpu.itb.read_acv                             0                       # DTB read access violations
system.cpu.itb.read_hits                            0                       # DTB read hits
system.cpu.itb.read_misses                          0                       # DTB read misses
system.cpu.itb.write_accesses                       0                       # DTB write accesses
system.cpu.itb.write_acv                            0                       # DTB write access violations
system.cpu.itb.write_hits                           0                       # DTB write hits
system.cpu.itb.write_misses                         0                       # DTB write misses
system.cpu.not_idle_fraction                        1                       # Percentage of non-idle cycles
system.cpu.numCycles                                2                       # number of cpu cycles simulated
system.cpu.num_insts                                2                       # Number of instructions executed
system.cpu.num_refs                                 0                       # Number of memory references
system.cpu.workload.PROG:num_syscalls               3                       # Number of system calls
system.l2.HardPFReq_avg_mshr_miss_latency 62667.979649                       # average HardPFReq mshr miss latency
system.l2.HardPFReq_mshr_miss_latency    155416714865                       # number of HardPFReq MSHR miss cycles
system.l2.HardPFReq_mshr_miss_rate                inf                       # mshr miss rate for HardPFReq accesses
system.l2.HardPFReq_mshr_misses               2480002                       # number of HardPFReq MSHR misses
system.l2.ReadExReq_accesses                     4027                       # number of ReadExReq accesses(hits+misses)
system.l2.ReadExReq_avg_miss_latency     70436.756337                       # average ReadExReq miss latency
system.l2.ReadExReq_avg_mshr_miss_latency 54890.325918                       # average ReadExReq mshr miss latency
system.l2.ReadExReq_hits                          161                       # number of ReadExReq hits
system.l2.ReadExReq_miss_latency            272308500                       # number of ReadExReq miss cycles
system.l2.ReadExReq_miss_rate                0.960020                       # miss rate for ReadExReq accesses
system.l2.ReadExReq_misses                       3866                       # number of ReadExReq misses
system.l2.ReadExReq_mshr_miss_latency       212206000                       # number of ReadExReq MSHR miss cycles
system.l2.ReadExReq_mshr_miss_rate           0.960020                       # mshr miss rate for ReadExReq accesses
system.l2.ReadExReq_mshr_misses                  3866                       # number of ReadExReq MSHR misses
system.l2.ReadReq_accesses                    3526476                       # number of ReadReq accesses(hits+misses)
system.l2.ReadReq_avg_miss_latency       88435.155313                       # average ReadReq miss latency
system.l2.ReadReq_avg_mshr_miss_latency  73166.275920                       # average ReadReq mshr miss latency
system.l2.ReadReq_hits                        2425476                       # number of ReadReq hits
system.l2.ReadReq_miss_latency            97367106000                       # number of ReadReq miss cycles
system.l2.ReadReq_miss_rate                  0.312210                       # miss rate for ReadReq accesses
system.l2.ReadReq_misses                      1101000                       # number of ReadReq misses
system.l2.ReadReq_mshr_hits                       115                       # number of ReadReq MSHR hits
system.l2.ReadReq_mshr_miss_latency       80547582500                       # number of ReadReq MSHR miss cycles
system.l2.ReadReq_mshr_miss_rate             0.312177                       # mshr miss rate for ReadReq accesses
system.l2.ReadReq_mshr_misses                 1100884                       # number of ReadReq MSHR misses
system.l2.UpgradeReq_accesses                     934                       # number of UpgradeReq accesses(hits+misses)
system.l2.UpgradeReq_avg_miss_latency    69956.102784                       # average UpgradeReq miss latency
system.l2.UpgradeReq_avg_mshr_miss_latency 54529.443255                       # average UpgradeReq mshr miss latency
system.l2.UpgradeReq_miss_latency            65339000                       # number of UpgradeReq miss cycles
system.l2.UpgradeReq_miss_rate                      1                       # miss rate for UpgradeReq accesses
system.l2.UpgradeReq_misses                       934                       # number of UpgradeReq misses
system.l2.UpgradeReq_mshr_miss_latency       50930500                       # number of UpgradeReq MSHR miss cycles
system.l2.UpgradeReq_mshr_miss_rate                 1                       # mshr miss rate for UpgradeReq accesses
system.l2.UpgradeReq_mshr_misses                  934                       # number of UpgradeReq MSHR misses
system.l2.Writeback_accesses                     4506                       # number of Writeback accesses(hits+misses)
system.l2.Writeback_hits                         4506                       # number of Writeback hits
system.l2.avg_blocked_cycles::no_mshrs       no_value                       # average number of cycles each access was blocked
system.l2.avg_blocked_cycles::no_targets     no_value                       # average number of cycles each access was blocked
system.l2.avg_refs                           0.677757                       # Average number of references to valid blocks.
system.l2.blocked::no_mshrs                         0                       # number of cycles access was blocked
system.l2.blocked::no_targets                       0                       # number of cycles access was blocked
system.l2.blocked_cycles::no_mshrs                  0                       # number of cycles access was blocked
system.l2.blocked_cycles::no_targets                0                       # number of cycles access was blocked
system.l2.cache_copies                              0                       # number of cache copies performed
system.l2.demand_accesses                     3530503                       # number of demand (read+write) accesses
system.l2.demand_avg_miss_latency        88372.177712                       # average overall miss latency
system.l2.demand_avg_mshr_miss_latency   73102.320434                       # average overall mshr miss latency
system.l2.demand_hits                         2425637                       # number of demand (read+write) hits
system.l2.demand_miss_latency             97639414500                       # number of demand (read+write) miss cycles
system.l2.demand_miss_rate                   0.312949                       # miss rate for demand accesses
system.l2.demand_misses                       1104866                       # number of demand (read+write) misses
system.l2.demand_mshr_hits                        115                       # number of demand (read+write) MSHR hits
system.l2.demand_mshr_miss_latency        80759788500                       # number of demand (read+write) MSHR miss cycles
system.l2.demand_mshr_miss_rate              0.312916                       # mshr miss rate for demand accesses
system.l2.demand_mshr_misses                  1104750                       # number of demand (read+write) MSHR misses
system.l2.fast_writes                               0                       # number of fast writes performed
system.l2.mshr_cap_events                           0                       # number of times MSHR cap was activated
system.l2.no_allocate_misses                        0                       # Number of misses that were no-allocate
system.l2.occ_%::0                           0.270147                       # Average percentage of cache occupancy
system.l2.occ_%::1                           0.000403                       # Average percentage of cache occupancy
system.l2.occ_blocks::0                   4426.088422                       # Average occupied blocks per context
system.l2.occ_blocks::1                      6.596537                       # Average occupied blocks per context
system.l2.overall_accesses                    3530503                       # number of overall (read+write) accesses
system.l2.overall_avg_miss_latency       88372.177712                       # average overall miss latency
system.l2.overall_avg_mshr_miss_latency  65883.638077                       # average overall mshr miss latency
system.l2.overall_avg_mshr_uncacheable_latency     no_value                       # average overall mshr uncacheable latency
system.l2.overall_hits                        2425637                       # number of overall hits
system.l2.overall_miss_latency            97639414500                       # number of overall miss cycles
system.l2.overall_miss_rate                  0.312949                       # miss rate for overall accesses
system.l2.overall_misses                      1104866                       # number of overall misses
system.l2.overall_mshr_hits                       115                       # number of overall MSHR hits
system.l2.overall_mshr_miss_latency      236176503365                       # number of overall MSHR miss cycles
system.l2.overall_mshr_miss_rate             1.015366                       # mshr miss rate for overall accesses
system.l2.overall_mshr_misses                 3584752                       # number of overall MSHR misses
system.l2.overall_mshr_uncacheable_latency            0                       # number of overall MSHR uncacheable cycles
system.l2.overall_mshr_uncacheable_misses            0                       # number of overall MSHR uncacheable misses
system.l2.prefetch_accuracy                  0.977524                       # ratio of good prefetches to total prefetches
system.l2.prefetch_hits                       2424262                       # number of prefetched blocks that were accessed
system.l2.prefetcher.num_hwpf_already_in_prefetcher        16375                       # number of hwpf that were already in the prefetch queue
system.l2.prefetcher.num_hwpf_evicted               0                       # number of hwpf removed due to no buffer left
system.l2.prefetcher.num_hwpf_identified      2980155                       # number of hwpf identified
system.l2.prefetcher.num_hwpf_issued          2963207                       # number of hwpf issued
system.l2.prefetcher.num_hwpf_removed_MSHR_hit          568                       # number of hwpf removed because MSHR allocated
system.l2.prefetcher.num_hwpf_span_page             0                       # number of hwpf spanning a virtual page
system.l2.prefetcher.num_hwpf_squashed_from_miss            0                       # number of hwpf that got squashed due to a miss aborting calculation time
system.l2.replacements                        3578010                       # number of replacements
system.l2.sampled_refs                        3582556                       # Sample count of references to valid blocks.
system.l2.soft_prefetch_mshr_full                   0                       # number of mshr full events for SW prefetching instrutions
system.l2.tagsinuse                       4432.684959                       # Cycle average of tags in use
system.l2.total_refs                          2428101                       # Total number of references to valid blocks.
system.l2.warmup_cycle                              0                       # Cycle when the warmup percentage was hit.
system.l2.writebacks                             4475                       # number of writebacks
system.switch_cpus.dtb.data_accesses          2832022                       # DTB accesses
system.switch_cpus.dtb.data_acv                     0                       # DTB access violations
system.switch_cpus.dtb.data_hits              2558233                       # DTB hits
system.switch_cpus.dtb.data_misses             273789                       # DTB misses
system.switch_cpus.dtb.fetch_accesses               0                       # ITB accesses
system.switch_cpus.dtb.fetch_acv                    0                       # ITB acv
system.switch_cpus.dtb.fetch_hits                   0                       # ITB hits
system.switch_cpus.dtb.fetch_misses                 0                       # ITB misses
system.switch_cpus.dtb.read_accesses          2682476                       # DTB read accesses
system.switch_cpus.dtb.read_acv                     0                       # DTB read access violations
system.switch_cpus.dtb.read_hits              2409028                       # DTB read hits
system.switch_cpus.dtb.read_misses             273448                       # DTB read misses
system.switch_cpus.dtb.write_accesses          149546                       # DTB write accesses
system.switch_cpus.dtb.write_acv                    0                       # DTB write access violations
system.switch_cpus.dtb.write_hits              149205                       # DTB write hits
system.switch_cpus.dtb.write_misses               341                       # DTB write misses
system.switch_cpus.idle_fraction                    1                       # Percentage of idle cycles
system.switch_cpus.itb.data_accesses                0                       # DTB accesses
system.switch_cpus.itb.data_acv                     0                       # DTB access violations
system.switch_cpus.itb.data_hits                    0                       # DTB hits
system.switch_cpus.itb.data_misses                  0                       # DTB misses
system.switch_cpus.itb.fetch_accesses        10273803                       # ITB accesses
system.switch_cpus.itb.fetch_acv                    0                       # ITB acv
system.switch_cpus.itb.fetch_hits            10273790                       # ITB hits
system.switch_cpus.itb.fetch_misses                13                       # ITB misses
system.switch_cpus.itb.read_accesses                0                       # DTB read accesses
system.switch_cpus.itb.read_acv                     0                       # DTB read access violations
system.switch_cpus.itb.read_hits                    0                       # DTB read hits
system.switch_cpus.itb.read_misses                  0                       # DTB read misses
system.switch_cpus.itb.write_accesses               0                       # DTB write accesses
system.switch_cpus.itb.write_acv                    0                       # DTB write access violations
system.switch_cpus.itb.write_hits                   0                       # DTB write hits
system.switch_cpus.itb.write_misses                 0                       # DTB write misses
system.switch_cpus.not_idle_fraction                0                       # Percentage of non-idle cycles
system.switch_cpus.numCycles                138580181                       # number of cpu cycles simulated
system.switch_cpus.num_insts                 10000001                       # Number of instructions executed
system.switch_cpus.num_refs                   2837031                       # Number of memory references
system.switch_cpus_1.BPredUnit.BTBCorrect            0                       # Number of correct BTB predictions (this stat may not work properly.
system.switch_cpus_1.BPredUnit.BTBHits        4168369                       # Number of BTB hits
system.switch_cpus_1.BPredUnit.BTBLookups      4360177                       # Number of BTB lookups
system.switch_cpus_1.BPredUnit.RASInCorrect           28                       # Number of incorrect RAS predictions.
system.switch_cpus_1.BPredUnit.condIncorrect        20407                       # Number of conditional branches incorrect
system.switch_cpus_1.BPredUnit.condPredicted      5241411                       # Number of conditional branches predicted
system.switch_cpus_1.BPredUnit.lookups        5386289                       # Number of BP lookups
system.switch_cpus_1.BPredUnit.usedRAS          53777                       # Number of times the RAS was used to get a target.
system.switch_cpus_1.commit.COM:branches      1639812                       # Number of branches committed
system.switch_cpus_1.commit.COM:bw_lim_events       275416                       # number cycles where commit BW limit reached
system.switch_cpus_1.commit.COM:bw_limited            0                       # number of insts not committed due to BW limits
system.switch_cpus_1.commit.COM:committed_per_cycle::samples     42396694                       # Number of insts commited each cycle
system.switch_cpus_1.commit.COM:committed_per_cycle::mean     0.243268                       # Number of insts commited each cycle
system.switch_cpus_1.commit.COM:committed_per_cycle::stdev     0.983154                       # Number of insts commited each cycle
system.switch_cpus_1.commit.COM:committed_per_cycle::underflows            0      0.00%      0.00% # Number of insts commited each cycle
system.switch_cpus_1.commit.COM:committed_per_cycle::0     38168708     90.03%     90.03% # Number of insts commited each cycle
system.switch_cpus_1.commit.COM:committed_per_cycle::1      2003288      4.73%     94.75% # Number of insts commited each cycle
system.switch_cpus_1.commit.COM:committed_per_cycle::2      1173519      2.77%     97.52% # Number of insts commited each cycle
system.switch_cpus_1.commit.COM:committed_per_cycle::3       138464      0.33%     97.85% # Number of insts commited each cycle
system.switch_cpus_1.commit.COM:committed_per_cycle::4        91881      0.22%     98.06% # Number of insts commited each cycle
system.switch_cpus_1.commit.COM:committed_per_cycle::5       326637      0.77%     98.83% # Number of insts commited each cycle
system.switch_cpus_1.commit.COM:committed_per_cycle::6       187474      0.44%     99.28% # Number of insts commited each cycle
system.switch_cpus_1.commit.COM:committed_per_cycle::7        31307      0.07%     99.35% # Number of insts commited each cycle
system.switch_cpus_1.commit.COM:committed_per_cycle::8       275416      0.65%    100.00% # Number of insts commited each cycle
system.switch_cpus_1.commit.COM:committed_per_cycle::overflows            0      0.00%    100.00% # Number of insts commited each cycle
system.switch_cpus_1.commit.COM:committed_per_cycle::min_value            0                       # Number of insts commited each cycle
system.switch_cpus_1.commit.COM:committed_per_cycle::max_value            8                       # Number of insts commited each cycle
system.switch_cpus_1.commit.COM:committed_per_cycle::total     42396694                       # Number of insts commited each cycle
system.switch_cpus_1.commit.COM:count        10313748                       # Number of instructions committed
system.switch_cpus_1.commit.COM:loads         2510912                       # Number of loads committed
system.switch_cpus_1.commit.COM:membars             0                       # Number of memory barriers committed
system.switch_cpus_1.commit.COM:refs          2655008                       # Number of memory references committed
system.switch_cpus_1.commit.COM:swp_count            0                       # Number of s/w prefetches committed
system.switch_cpus_1.commit.branchMispredicts        20085                       # The number of times a branch was mispredicted
system.switch_cpus_1.commit.commitCommittedInsts     10313748                       # The number of committed instructions
system.switch_cpus_1.commit.commitNonSpecStalls            1                       # The number of times commit has been forced to stall to communicate backwards
system.switch_cpus_1.commit.commitSquashedInsts     22090947                       # The number of squashed insts skipped by commit
system.switch_cpus_1.committedInsts          10000000                       # Number of Instructions Simulated
system.switch_cpus_1.committedInsts_total     10000000                       # Number of Instructions Simulated
system.switch_cpus_1.cpi                    10.453185                       # CPI: Cycles Per Instruction
system.switch_cpus_1.cpi_total              10.453185                       # CPI: Total CPI of All Threads
system.switch_cpus_1.decode.DECODE:BlockedCycles     27891067                       # Number of cycles decode is blocked
system.switch_cpus_1.decode.DECODE:BranchMispred          327                       # Number of times decode detected a branch misprediction
system.switch_cpus_1.decode.DECODE:BranchResolved        88723                       # Number of times decode resolved a branch
system.switch_cpus_1.decode.DECODE:DecodedInsts     33793329                       # Number of instructions handled by decode
system.switch_cpus_1.decode.DECODE:IdleCycles      7443873                       # Number of cycles decode is idle
system.switch_cpus_1.decode.DECODE:RunCycles      6770043                       # Number of cycles decode is running
system.switch_cpus_1.decode.DECODE:SquashCycles      2935672                       # Number of cycles decode is squashing
system.switch_cpus_1.decode.DECODE:SquashedInsts         1331                       # Number of squashed instructions handled by decode
system.switch_cpus_1.decode.DECODE:UnblockCycles       291710                       # Number of cycles decode is unblocking
system.switch_cpus_1.dtb.data_accesses        3997745                       # DTB accesses
system.switch_cpus_1.dtb.data_acv                   0                       # DTB access violations
system.switch_cpus_1.dtb.data_hits            3405931                       # DTB hits
system.switch_cpus_1.dtb.data_misses           591814                       # DTB misses
system.switch_cpus_1.dtb.fetch_accesses             0                       # ITB accesses
system.switch_cpus_1.dtb.fetch_acv                  0                       # ITB acv
system.switch_cpus_1.dtb.fetch_hits                 0                       # ITB hits
system.switch_cpus_1.dtb.fetch_misses               0                       # ITB misses
system.switch_cpus_1.dtb.read_accesses        3830165                       # DTB read accesses
system.switch_cpus_1.dtb.read_acv                   0                       # DTB read access violations
system.switch_cpus_1.dtb.read_hits            3238987                       # DTB read hits
system.switch_cpus_1.dtb.read_misses           591178                       # DTB read misses
system.switch_cpus_1.dtb.write_accesses        167580                       # DTB write accesses
system.switch_cpus_1.dtb.write_acv                  0                       # DTB write access violations
system.switch_cpus_1.dtb.write_hits            166944                       # DTB write hits
system.switch_cpus_1.dtb.write_misses             636                       # DTB write misses
system.switch_cpus_1.fetch.Branches           5386289                       # Number of branches that fetch encountered
system.switch_cpus_1.fetch.CacheLines         3253855                       # Number of cache lines fetched
system.switch_cpus_1.fetch.Cycles            10596051                       # Number of cycles fetch has run and was not squashing or blocked
system.switch_cpus_1.fetch.IcacheSquashes         4336                       # Number of outstanding Icache misses that were squashed
system.switch_cpus_1.fetch.Insts             35221725                       # Number of instructions fetch has processed
system.switch_cpus_1.fetch.SquashCycles        315585                       # Number of cycles fetch has spent squashing
system.switch_cpus_1.fetch.branchRate        0.051528                       # Number of branch fetches per cycle
system.switch_cpus_1.fetch.icacheStallCycles      3253855                       # Number of cycles fetch is stalled on an Icache miss
system.switch_cpus_1.fetch.predictedBranches      4222146                       # Number of branches that fetch has predicted taken
system.switch_cpus_1.fetch.rate              0.336947                       # Number of inst fetches per cycle
system.switch_cpus_1.fetch.rateDist::samples     45332366                       # Number of instructions fetched each cycle (Total)
system.switch_cpus_1.fetch.rateDist::mean     0.776966                       # Number of instructions fetched each cycle (Total)
system.switch_cpus_1.fetch.rateDist::stdev     1.996053                       # Number of instructions fetched each cycle (Total)
system.switch_cpus_1.fetch.rateDist::underflows            0      0.00%      0.00% # Number of instructions fetched each cycle (Total)
system.switch_cpus_1.fetch.rateDist::0       37990236     83.80%     83.80% # Number of instructions fetched each cycle (Total)
system.switch_cpus_1.fetch.rateDist::1         936180      2.07%     85.87% # Number of instructions fetched each cycle (Total)
system.switch_cpus_1.fetch.rateDist::2          74585      0.16%     86.03% # Number of instructions fetched each cycle (Total)
system.switch_cpus_1.fetch.rateDist::3          62727      0.14%     86.17% # Number of instructions fetched each cycle (Total)
system.switch_cpus_1.fetch.rateDist::4        3958655      8.73%     94.90% # Number of instructions fetched each cycle (Total)
system.switch_cpus_1.fetch.rateDist::5          55715      0.12%     95.03% # Number of instructions fetched each cycle (Total)
system.switch_cpus_1.fetch.rateDist::6          82079      0.18%     95.21% # Number of instructions fetched each cycle (Total)
system.switch_cpus_1.fetch.rateDist::7          34987      0.08%     95.29% # Number of instructions fetched each cycle (Total)
system.switch_cpus_1.fetch.rateDist::8        2137202      4.71%    100.00% # Number of instructions fetched each cycle (Total)
system.switch_cpus_1.fetch.rateDist::overflows            0      0.00%    100.00% # Number of instructions fetched each cycle (Total)
system.switch_cpus_1.fetch.rateDist::min_value            0                       # Number of instructions fetched each cycle (Total)
system.switch_cpus_1.fetch.rateDist::max_value            8                       # Number of instructions fetched each cycle (Total)
system.switch_cpus_1.fetch.rateDist::total     45332366                       # Number of instructions fetched each cycle (Total)
system.switch_cpus_1.idleCycles              59199488                       # Total number of cycles that the CPU has spent unscheduled due to idling
system.switch_cpus_1.iew.EXEC:branches        2328148                       # Number of branches executed
system.switch_cpus_1.iew.EXEC:nop              362994                       # number of nop insts executed
system.switch_cpus_1.iew.EXEC:rate           0.136570                       # Inst execution rate
system.switch_cpus_1.iew.EXEC:refs            4004125                       # number of memory reference insts executed
system.switch_cpus_1.iew.EXEC:stores           167580                       # Number of stores executed
system.switch_cpus_1.iew.EXEC:swp                   0                       # number of swp insts executed
system.switch_cpus_1.iew.WB:consumers        11932578                       # num instructions consuming a value
system.switch_cpus_1.iew.WB:count            13661880                       # cumulative count of insts written-back
system.switch_cpus_1.iew.WB:fanout           0.650450                       # average fanout of values written-back
system.switch_cpus_1.iew.WB:penalized               0                       # number of instrctions required to write to 'other' IQ
system.switch_cpus_1.iew.WB:penalized_rate            0                       # fraction of instructions written-back that wrote to 'other' IQ
system.switch_cpus_1.iew.WB:producers         7761545                       # num instructions producing a value
system.switch_cpus_1.iew.WB:rate             0.130696                       # insts written-back per cycle
system.switch_cpus_1.iew.WB:sent             14254785                       # cumulative count of insts sent to commit
system.switch_cpus_1.iew.branchMispredicts        22960                       # Number of branch mispredicts detected at execute
system.switch_cpus_1.iew.iewBlockCycles      17611858                       # Number of cycles IEW is blocking
system.switch_cpus_1.iew.iewDispLoadInsts      8757138                       # Number of dispatched load instructions
system.switch_cpus_1.iew.iewDispNonSpecInsts            1                       # Number of dispatched non-speculative instructions
system.switch_cpus_1.iew.iewDispSquashedInsts        19124                       # Number of squashed instructions skipped by dispatch
system.switch_cpus_1.iew.iewDispStoreInsts       184042                       # Number of dispatched store instructions
system.switch_cpus_1.iew.iewDispatchedInsts     32623313                       # Number of instructions dispatched to IQ
system.switch_cpus_1.iew.iewExecLoadInsts      3836545                       # Number of load instructions executed
system.switch_cpus_1.iew.iewExecSquashedInsts        19041                       # Number of squashed instructions skipped in execute
system.switch_cpus_1.iew.iewExecutedInsts     14275921                       # Number of executed instructions
system.switch_cpus_1.iew.iewIQFullEvents       855614                       # Number of times the IQ has become full, causing a stall
system.switch_cpus_1.iew.iewIdleCycles              0                       # Number of cycles IEW is idle
system.switch_cpus_1.iew.iewLSQFullEvents          834                       # Number of times the LSQ has become full, causing a stall
system.switch_cpus_1.iew.iewSquashCycles      2935672                       # Number of cycles IEW is squashing
system.switch_cpus_1.iew.iewUnblockCycles      1470774                       # Number of cycles IEW is unblocking
system.switch_cpus_1.iew.lsq.thread.0.blockedLoads            0                       # Number of blocked loads due to partial load-store forwarding
system.switch_cpus_1.iew.lsq.thread.0.cacheBlocked         5727                       # Number of times an access to memory failed due to the cache being blocked
system.switch_cpus_1.iew.lsq.thread.0.forwLoads        33087                       # Number of loads that had data forwarded from stores
system.switch_cpus_1.iew.lsq.thread.0.ignoredResponses          275                       # Number of memory responses ignored because the instruction is squashed
system.switch_cpus_1.iew.lsq.thread.0.invAddrLoads            0                       # Number of loads ignored due to an invalid address
system.switch_cpus_1.iew.lsq.thread.0.invAddrSwpfs            0                       # Number of software prefetches ignored due to an invalid address
system.switch_cpus_1.iew.lsq.thread.0.memOrderViolation          580                       # Number of memory ordering violations
system.switch_cpus_1.iew.lsq.thread.0.rescheduledLoads            0                       # Number of loads that were rescheduled
system.switch_cpus_1.iew.lsq.thread.0.squashedLoads      6246205                       # Number of loads squashed
system.switch_cpus_1.iew.lsq.thread.0.squashedStores        39946                       # Number of stores squashed
system.switch_cpus_1.iew.memOrderViolationEvents          580                       # Number of memory order violations
system.switch_cpus_1.iew.predictedNotTakenIncorrect         7285                       # Number of branches that were predicted not taken incorrectly
system.switch_cpus_1.iew.predictedTakenIncorrect        15675                       # Number of branches that were predicted taken incorrectly
system.switch_cpus_1.ipc                     0.095665                       # IPC: Instructions Per Cycle
system.switch_cpus_1.ipc_total               0.095665                       # IPC: Total IPC of All Threads
system.switch_cpus_1.iq.ISSUE:FU_type_0::No_OpClass            0      0.00%      0.00% # Type of FU issued
system.switch_cpus_1.iq.ISSUE:FU_type_0::IntAlu     10277870     71.90%     71.90% # Type of FU issued
system.switch_cpus_1.iq.ISSUE:FU_type_0::IntMult         1084      0.01%     71.91% # Type of FU issued
system.switch_cpus_1.iq.ISSUE:FU_type_0::IntDiv            0      0.00%     71.91% # Type of FU issued
system.switch_cpus_1.iq.ISSUE:FU_type_0::FloatAdd         4266      0.03%     71.94% # Type of FU issued
system.switch_cpus_1.iq.ISSUE:FU_type_0::FloatCmp            0      0.00%     71.94% # Type of FU issued
system.switch_cpus_1.iq.ISSUE:FU_type_0::FloatCvt         1100      0.01%     71.94% # Type of FU issued
system.switch_cpus_1.iq.ISSUE:FU_type_0::FloatMult          220      0.00%     71.95% # Type of FU issued
system.switch_cpus_1.iq.ISSUE:FU_type_0::FloatDiv            0      0.00%     71.95% # Type of FU issued
system.switch_cpus_1.iq.ISSUE:FU_type_0::FloatSqrt            0      0.00%     71.95% # Type of FU issued
system.switch_cpus_1.iq.ISSUE:FU_type_0::MemRead      3841183     26.87%     98.82% # Type of FU issued
system.switch_cpus_1.iq.ISSUE:FU_type_0::MemWrite       169239      1.18%    100.00% # Type of FU issued
system.switch_cpus_1.iq.ISSUE:FU_type_0::IprAccess            0      0.00%    100.00% # Type of FU issued
system.switch_cpus_1.iq.ISSUE:FU_type_0::InstPrefetch            0      0.00%    100.00% # Type of FU issued
system.switch_cpus_1.iq.ISSUE:FU_type_0::total     14294962                       # Type of FU issued
system.switch_cpus_1.iq.ISSUE:fu_busy_cnt         8837                       # FU busy when requested
system.switch_cpus_1.iq.ISSUE:fu_busy_rate     0.000618                       # FU busy rate (busy events/executed inst)
system.switch_cpus_1.iq.ISSUE:fu_full::No_OpClass            0      0.00%      0.00% # attempts to use FU when none available
system.switch_cpus_1.iq.ISSUE:fu_full::IntAlu           69      0.78%      0.78% # attempts to use FU when none available
system.switch_cpus_1.iq.ISSUE:fu_full::IntMult            0      0.00%      0.78% # attempts to use FU when none available
system.switch_cpus_1.iq.ISSUE:fu_full::IntDiv            0      0.00%      0.78% # attempts to use FU when none available
system.switch_cpus_1.iq.ISSUE:fu_full::FloatAdd            0      0.00%      0.78% # attempts to use FU when none available
system.switch_cpus_1.iq.ISSUE:fu_full::FloatCmp            0      0.00%      0.78% # attempts to use FU when none available
system.switch_cpus_1.iq.ISSUE:fu_full::FloatCvt            0      0.00%      0.78% # attempts to use FU when none available
system.switch_cpus_1.iq.ISSUE:fu_full::FloatMult            0      0.00%      0.78% # attempts to use FU when none available
system.switch_cpus_1.iq.ISSUE:fu_full::FloatDiv            0      0.00%      0.78% # attempts to use FU when none available
system.switch_cpus_1.iq.ISSUE:fu_full::FloatSqrt            0      0.00%      0.78% # attempts to use FU when none available
system.switch_cpus_1.iq.ISSUE:fu_full::MemRead         4972     56.26%     57.04% # attempts to use FU when none available
system.switch_cpus_1.iq.ISSUE:fu_full::MemWrite         3796     42.96%    100.00% # attempts to use FU when none available
system.switch_cpus_1.iq.ISSUE:fu_full::IprAccess            0      0.00%    100.00% # attempts to use FU when none available
system.switch_cpus_1.iq.ISSUE:fu_full::InstPrefetch            0      0.00%    100.00% # attempts to use FU when none available
system.switch_cpus_1.iq.ISSUE:issued_per_cycle::samples     45332366                       # Number of insts issued each cycle
system.switch_cpus_1.iq.ISSUE:issued_per_cycle::mean     0.315337                       # Number of insts issued each cycle
system.switch_cpus_1.iq.ISSUE:issued_per_cycle::stdev     0.703971                       # Number of insts issued each cycle
system.switch_cpus_1.iq.ISSUE:issued_per_cycle::underflows            0      0.00%      0.00% # Number of insts issued each cycle
system.switch_cpus_1.iq.ISSUE:issued_per_cycle::0     35150205     77.54%     77.54% # Number of insts issued each cycle
system.switch_cpus_1.iq.ISSUE:issued_per_cycle::1      7740390     17.07%     94.61% # Number of insts issued each cycle
system.switch_cpus_1.iq.ISSUE:issued_per_cycle::2      1178980      2.60%     97.21% # Number of insts issued each cycle
system.switch_cpus_1.iq.ISSUE:issued_per_cycle::3       976380      2.15%     99.37% # Number of insts issued each cycle
system.switch_cpus_1.iq.ISSUE:issued_per_cycle::4       184731      0.41%     99.78% # Number of insts issued each cycle
system.switch_cpus_1.iq.ISSUE:issued_per_cycle::5        86441      0.19%     99.97% # Number of insts issued each cycle
system.switch_cpus_1.iq.ISSUE:issued_per_cycle::6        10562      0.02%     99.99% # Number of insts issued each cycle
system.switch_cpus_1.iq.ISSUE:issued_per_cycle::7         4445      0.01%    100.00% # Number of insts issued each cycle
system.switch_cpus_1.iq.ISSUE:issued_per_cycle::8          232      0.00%    100.00% # Number of insts issued each cycle
system.switch_cpus_1.iq.ISSUE:issued_per_cycle::overflows            0      0.00%    100.00% # Number of insts issued each cycle
system.switch_cpus_1.iq.ISSUE:issued_per_cycle::min_value            0                       # Number of insts issued each cycle
system.switch_cpus_1.iq.ISSUE:issued_per_cycle::max_value            8                       # Number of insts issued each cycle
system.switch_cpus_1.iq.ISSUE:issued_per_cycle::total     45332366                       # Number of insts issued each cycle
system.switch_cpus_1.iq.ISSUE:rate           0.136752                       # Inst issue rate
system.switch_cpus_1.iq.iqInstsAdded         32260318                       # Number of instructions added to the IQ (excludes non-spec)
system.switch_cpus_1.iq.iqInstsIssued        14294962                       # Number of instructions issued
system.switch_cpus_1.iq.iqNonSpecInstsAdded            1                       # Number of non-speculative instructions added to the IQ
system.switch_cpus_1.iq.iqSquashedInstsExamined     22240914                       # Number of squashed instructions iterated over during squash; mainly for profiling
system.switch_cpus_1.iq.iqSquashedInstsIssued          405                       # Number of squashed instructions issued
system.switch_cpus_1.iq.iqSquashedOperandsExamined     31588289                       # Number of squashed operands that are examined and possibly removed from graph
system.switch_cpus_1.itb.data_accesses              0                       # DTB accesses
system.switch_cpus_1.itb.data_acv                   0                       # DTB access violations
system.switch_cpus_1.itb.data_hits                  0                       # DTB hits
system.switch_cpus_1.itb.data_misses                0                       # DTB misses
system.switch_cpus_1.itb.fetch_accesses       3253921                       # ITB accesses
system.switch_cpus_1.itb.fetch_acv                  0                       # ITB acv
system.switch_cpus_1.itb.fetch_hits           3253855                       # ITB hits
system.switch_cpus_1.itb.fetch_misses              66                       # ITB misses
system.switch_cpus_1.itb.read_accesses              0                       # DTB read accesses
system.switch_cpus_1.itb.read_acv                   0                       # DTB read access violations
system.switch_cpus_1.itb.read_hits                  0                       # DTB read hits
system.switch_cpus_1.itb.read_misses                0                       # DTB read misses
system.switch_cpus_1.itb.write_accesses             0                       # DTB write accesses
system.switch_cpus_1.itb.write_acv                  0                       # DTB write access violations
system.switch_cpus_1.itb.write_hits                 0                       # DTB write hits
system.switch_cpus_1.itb.write_misses               0                       # DTB write misses
system.switch_cpus_1.memDep0.conflictingLoads        66612                       # Number of conflicting loads.
system.switch_cpus_1.memDep0.conflictingStores         2409                       # Number of conflicting stores.
system.switch_cpus_1.memDep0.insertedLoads      8757138                       # Number of loads inserted to the mem dependence unit.
system.switch_cpus_1.memDep0.insertedStores       184042                       # Number of stores inserted to the mem dependence unit.
system.switch_cpus_1.numCycles              104531854                       # number of cpu cycles simulated
system.switch_cpus_1.rename.RENAME:BlockCycles     24234261                       # Number of cycles rename is blocking
system.switch_cpus_1.rename.RENAME:CommittedMaps      8255878                       # Number of HB maps that are committed
system.switch_cpus_1.rename.RENAME:IQFullEvents      3685556                       # Number of times rename has blocked due to IQ full
system.switch_cpus_1.rename.RENAME:IdleCycles      8311842                       # Number of cycles rename is idle
system.switch_cpus_1.rename.RENAME:LSQFullEvents        26936                       # Number of times rename has blocked due to LSQ full
system.switch_cpus_1.rename.RENAME:ROBFullEvents         1199                       # Number of times rename has blocked due to ROB full
system.switch_cpus_1.rename.RENAME:RenameLookups     52855997                       # Number of register rename lookups that rename has made
system.switch_cpus_1.rename.RENAME:RenamedInsts     32836719                       # Number of instructions processed by rename
system.switch_cpus_1.rename.RENAME:RenamedOperands     27329708                       # Number of destination operands rename has renamed
system.switch_cpus_1.rename.RENAME:RunCycles      6254218                       # Number of cycles rename is running
system.switch_cpus_1.rename.RENAME:SquashCycles      2935672                       # Number of cycles rename is squashing
system.switch_cpus_1.rename.RENAME:UnblockCycles      3596361                       # Number of cycles rename is unblocking
system.switch_cpus_1.rename.RENAME:UndoneMaps     19073764                       # Number of HB maps that are undone due to squashing
system.switch_cpus_1.rename.RENAME:serializeStallCycles           11                       # count of cycles rename stalled for serializing inst
system.switch_cpus_1.rename.RENAME:serializingInsts            1                       # count of serializing insts renamed
system.switch_cpus_1.rename.RENAME:skidInsts      7276470                       # count of insts added to the skid buffer
system.switch_cpus_1.rename.RENAME:tempSerializingInsts            1                       # count of temporary serializing insts renamed
system.switch_cpus_1.timesIdled               1154359                       # Number of times that the entire CPU went into an idle state and unscheduled itself

---------- End Simulation Statistics   ----------
