
---------- Begin Simulation Statistics ----------
host_inst_rate                                 117904                       # Simulator instruction rate (inst/s)
host_mem_usage                                 333904                       # Number of bytes of host memory used
host_seconds                                   169.63                       # Real time elapsed on the host
host_tick_rate                              721239307                       # Simulator tick rate (ticks/s)
sim_freq                                 1000000000000                       # Frequency of simulated ticks
sim_insts                                    20000003                       # Number of instructions simulated
sim_seconds                                  0.122344                       # Number of seconds simulated
sim_ticks                                122343820000                       # Number of ticks simulated
system.cpu.dcache.ReadReq_accesses            5609793                       # number of ReadReq accesses(hits+misses)
system.cpu.dcache.ReadReq_avg_miss_latency 39396.162606                       # average ReadReq miss latency
system.cpu.dcache.ReadReq_avg_mshr_miss_latency 36254.137099                       # average ReadReq mshr miss latency
system.cpu.dcache.ReadReq_hits                2084406                       # number of ReadReq hits
system.cpu.dcache.ReadReq_miss_latency   138886719500                       # number of ReadReq miss cycles
system.cpu.dcache.ReadReq_miss_rate          0.628434                       # miss rate for ReadReq accesses
system.cpu.dcache.ReadReq_misses              3525387                       # number of ReadReq misses
system.cpu.dcache.ReadReq_mshr_hits              4079                       # number of ReadReq MSHR hits
system.cpu.dcache.ReadReq_mshr_miss_latency 127661983000                       # number of ReadReq MSHR miss cycles
system.cpu.dcache.ReadReq_mshr_miss_rate     0.627707                       # mshr miss rate for ReadReq accesses
system.cpu.dcache.ReadReq_mshr_misses         3521308                       # number of ReadReq MSHR misses
system.cpu.dcache.WriteReq_accesses            293301                       # number of WriteReq accesses(hits+misses)
system.cpu.dcache.WriteReq_avg_miss_latency 77430.915202                       # average WriteReq miss latency
system.cpu.dcache.WriteReq_avg_mshr_miss_latency 75070.500928                       # average WriteReq mshr miss latency
system.cpu.dcache.WriteReq_hits                285506                       # number of WriteReq hits
system.cpu.dcache.WriteReq_miss_latency     603573984                       # number of WriteReq miss cycles
system.cpu.dcache.WriteReq_miss_rate         0.026577                       # miss rate for WriteReq accesses
system.cpu.dcache.WriteReq_misses                7795                       # number of WriteReq misses
system.cpu.dcache.WriteReq_mshr_hits             2944                       # number of WriteReq MSHR hits
system.cpu.dcache.WriteReq_mshr_miss_latency    364167000                       # number of WriteReq MSHR miss cycles
system.cpu.dcache.WriteReq_mshr_miss_rate     0.016539                       # mshr miss rate for WriteReq accesses
system.cpu.dcache.WriteReq_mshr_misses           4851                       # number of WriteReq MSHR misses
system.cpu.dcache.avg_blocked_cycles::no_mshrs         9700                       # average number of cycles each access was blocked
system.cpu.dcache.avg_blocked_cycles::no_targets 69499.977099                       # average number of cycles each access was blocked
system.cpu.dcache.avg_refs                   0.672586                       # Average number of references to valid blocks.
system.cpu.dcache.blocked::no_mshrs                 5                       # number of cycles access was blocked
system.cpu.dcache.blocked::no_targets             524                       # number of cycles access was blocked
system.cpu.dcache.blocked_cycles::no_mshrs        48500                       # number of cycles access was blocked
system.cpu.dcache.blocked_cycles::no_targets     36417988                       # number of cycles access was blocked
system.cpu.dcache.cache_copies                      0                       # number of cache copies performed
system.cpu.dcache.demand_accesses             5903094                       # number of demand (read+write) accesses
system.cpu.dcache.demand_avg_miss_latency 39480.075887                       # average overall miss latency
system.cpu.dcache.demand_avg_mshr_miss_latency 36307.537465                       # average overall mshr miss latency
system.cpu.dcache.demand_hits                 2369912                       # number of demand (read+write) hits
system.cpu.dcache.demand_miss_latency    139490293484                       # number of demand (read+write) miss cycles
system.cpu.dcache.demand_miss_rate           0.598531                       # miss rate for demand accesses
system.cpu.dcache.demand_misses               3533182                       # number of demand (read+write) misses
system.cpu.dcache.demand_mshr_hits               7023                       # number of demand (read+write) MSHR hits
system.cpu.dcache.demand_mshr_miss_latency 128026150000                       # number of demand (read+write) MSHR miss cycles
system.cpu.dcache.demand_mshr_miss_rate      0.597341                       # mshr miss rate for demand accesses
system.cpu.dcache.demand_mshr_misses          3526159                       # number of demand (read+write) MSHR misses
system.cpu.dcache.fast_writes                       0                       # number of fast writes performed
system.cpu.dcache.mshr_cap_events                   0                       # number of times MSHR cap was activated
system.cpu.dcache.no_allocate_misses                0                       # Number of misses that were no-allocate
system.cpu.dcache.occ_%::0                   0.604894                       # Average percentage of cache occupancy
system.cpu.dcache.occ_blocks::0            619.411530                       # Average occupied blocks per context
system.cpu.dcache.overall_accesses            5903094                       # number of overall (read+write) accesses
system.cpu.dcache.overall_avg_miss_latency 39480.075887                       # average overall miss latency
system.cpu.dcache.overall_avg_mshr_miss_latency 36307.537465                       # average overall mshr miss latency
system.cpu.dcache.overall_avg_mshr_uncacheable_latency     no_value                       # average overall mshr uncacheable latency
system.cpu.dcache.overall_hits                2369912                       # number of overall hits
system.cpu.dcache.overall_miss_latency   139490293484                       # number of overall miss cycles
system.cpu.dcache.overall_miss_rate          0.598531                       # miss rate for overall accesses
system.cpu.dcache.overall_misses              3533182                       # number of overall misses
system.cpu.dcache.overall_mshr_hits              7023                       # number of overall MSHR hits
system.cpu.dcache.overall_mshr_miss_latency 128026150000                       # number of overall MSHR miss cycles
system.cpu.dcache.overall_mshr_miss_rate     0.597341                       # mshr miss rate for overall accesses
system.cpu.dcache.overall_mshr_misses         3526159                       # number of overall MSHR misses
system.cpu.dcache.overall_mshr_uncacheable_latency            0                       # number of overall MSHR uncacheable cycles
system.cpu.dcache.overall_mshr_uncacheable_misses            0                       # number of overall MSHR uncacheable misses
system.cpu.dcache.prefetch_accuracy          no_value                       # ratio of good prefetches to total prefetches
system.cpu.dcache.prefetch_hits                     0                       # number of prefetched blocks that were accessed
system.cpu.dcache.replacements                3524482                       # number of replacements
system.cpu.dcache.sampled_refs                3525333                       # Sample count of references to valid blocks.
system.cpu.dcache.soft_prefetch_mshr_full            0                       # number of mshr full events for SW prefetching instrutions
system.cpu.dcache.tagsinuse                619.411530                       # Cycle average of tags in use
system.cpu.dcache.total_refs                  2371091                       # Total number of references to valid blocks.
system.cpu.dcache.warmup_cycle                      0                       # Cycle when the warmup percentage was hit.
system.cpu.dcache.writebacks                     4506                       # number of writebacks
system.cpu.dtb.data_accesses                        0                       # DTB accesses
system.cpu.dtb.data_acv                             0                       # DTB access violations
system.cpu.dtb.data_hits                            0                       # DTB hits
system.cpu.dtb.data_misses                          0                       # DTB misses
system.cpu.dtb.fetch_accesses                       0                       # ITB accesses
system.cpu.dtb.fetch_acv                            0                       # ITB acv
system.cpu.dtb.fetch_hits                           0                       # ITB hits
system.cpu.dtb.fetch_misses                         0                       # ITB misses
system.cpu.dtb.read_accesses                        0                       # DTB read accesses
system.cpu.dtb.read_acv                             0                       # DTB read access violations
system.cpu.dtb.read_hits                            0                       # DTB read hits
system.cpu.dtb.read_misses                          0                       # DTB read misses
system.cpu.dtb.write_accesses                       0                       # DTB write accesses
system.cpu.dtb.write_acv                            0                       # DTB write access violations
system.cpu.dtb.write_hits                           0                       # DTB write hits
system.cpu.dtb.write_misses                         0                       # DTB write misses
system.cpu.icache.ReadReq_accesses           13535838                       # number of ReadReq accesses(hits+misses)
system.cpu.icache.ReadReq_avg_miss_latency 38946.444726                       # average ReadReq miss latency
system.cpu.icache.ReadReq_avg_mshr_miss_latency 35030.880929                       # average ReadReq mshr miss latency
system.cpu.icache.ReadReq_hits               13530311                       # number of ReadReq hits
system.cpu.icache.ReadReq_miss_latency      215257000                       # number of ReadReq miss cycles
system.cpu.icache.ReadReq_miss_rate          0.000408                       # miss rate for ReadReq accesses
system.cpu.icache.ReadReq_misses                 5527                       # number of ReadReq misses
system.cpu.icache.ReadReq_mshr_hits               361                       # number of ReadReq MSHR hits
system.cpu.icache.ReadReq_mshr_miss_latency    180934500                       # number of ReadReq MSHR miss cycles
system.cpu.icache.ReadReq_mshr_miss_rate     0.000382                       # mshr miss rate for ReadReq accesses
system.cpu.icache.ReadReq_mshr_misses            5165                       # number of ReadReq MSHR misses
system.cpu.icache.avg_blocked_cycles::no_mshrs     no_value                       # average number of cycles each access was blocked
system.cpu.icache.avg_blocked_cycles::no_targets     no_value                       # average number of cycles each access was blocked
system.cpu.icache.avg_refs                2619.107820                       # Average number of references to valid blocks.
system.cpu.icache.blocked::no_mshrs                 0                       # number of cycles access was blocked
system.cpu.icache.blocked::no_targets               0                       # number of cycles access was blocked
system.cpu.icache.blocked_cycles::no_mshrs            0                       # number of cycles access was blocked
system.cpu.icache.blocked_cycles::no_targets            0                       # number of cycles access was blocked
system.cpu.icache.cache_copies                      0                       # number of cache copies performed
system.cpu.icache.demand_accesses            13535838                       # number of demand (read+write) accesses
system.cpu.icache.demand_avg_miss_latency 38946.444726                       # average overall miss latency
system.cpu.icache.demand_avg_mshr_miss_latency 35030.880929                       # average overall mshr miss latency
system.cpu.icache.demand_hits                13530311                       # number of demand (read+write) hits
system.cpu.icache.demand_miss_latency       215257000                       # number of demand (read+write) miss cycles
system.cpu.icache.demand_miss_rate           0.000408                       # miss rate for demand accesses
system.cpu.icache.demand_misses                  5527                       # number of demand (read+write) misses
system.cpu.icache.demand_mshr_hits                361                       # number of demand (read+write) MSHR hits
system.cpu.icache.demand_mshr_miss_latency    180934500                       # number of demand (read+write) MSHR miss cycles
system.cpu.icache.demand_mshr_miss_rate      0.000382                       # mshr miss rate for demand accesses
system.cpu.icache.demand_mshr_misses             5165                       # number of demand (read+write) MSHR misses
system.cpu.icache.fast_writes                       0                       # number of fast writes performed
system.cpu.icache.mshr_cap_events                   0                       # number of times MSHR cap was activated
system.cpu.icache.no_allocate_misses                0                       # Number of misses that were no-allocate
system.cpu.icache.occ_%::0                   0.363009                       # Average percentage of cache occupancy
system.cpu.icache.occ_blocks::0            185.860637                       # Average occupied blocks per context
system.cpu.icache.overall_accesses           13535838                       # number of overall (read+write) accesses
system.cpu.icache.overall_avg_miss_latency 38946.444726                       # average overall miss latency
system.cpu.icache.overall_avg_mshr_miss_latency 35030.880929                       # average overall mshr miss latency
system.cpu.icache.overall_avg_mshr_uncacheable_latency     no_value                       # average overall mshr uncacheable latency
system.cpu.icache.overall_hits               13530311                       # number of overall hits
system.cpu.icache.overall_miss_latency      215257000                       # number of overall miss cycles
system.cpu.icache.overall_miss_rate          0.000408                       # miss rate for overall accesses
system.cpu.icache.overall_misses                 5527                       # number of overall misses
system.cpu.icache.overall_mshr_hits               361                       # number of overall MSHR hits
system.cpu.icache.overall_mshr_miss_latency    180934500                       # number of overall MSHR miss cycles
system.cpu.icache.overall_mshr_miss_rate     0.000382                       # mshr miss rate for overall accesses
system.cpu.icache.overall_mshr_misses            5165                       # number of overall MSHR misses
system.cpu.icache.overall_mshr_uncacheable_latency            0                       # number of overall MSHR uncacheable cycles
system.cpu.icache.overall_mshr_uncacheable_misses            0                       # number of overall MSHR uncacheable misses
system.cpu.icache.prefetch_accuracy          no_value                       # ratio of good prefetches to total prefetches
system.cpu.icache.prefetch_hits                     0                       # number of prefetched blocks that were accessed
system.cpu.icache.replacements                   4957                       # number of replacements
system.cpu.icache.sampled_refs                   5166                       # Sample count of references to valid blocks.
system.cpu.icache.soft_prefetch_mshr_full            0                       # number of mshr full events for SW prefetching instrutions
system.cpu.icache.tagsinuse                185.860637                       # Cycle average of tags in use
system.cpu.icache.total_refs                 13530311                       # Total number of references to valid blocks.
system.cpu.icache.warmup_cycle                      0                       # Cycle when the warmup percentage was hit.
system.cpu.icache.writebacks                        0                       # number of writebacks
system.cpu.idle_fraction                            0                       # Percentage of idle cycles
system.cpu.itb.data_accesses                        0                       # DTB accesses
system.cpu.itb.data_acv                             0                       # DTB access violations
system.cpu.itb.data_hits                            0                       # DTB hits
system.cpu.itb.data_misses                          0                       # DTB misses
system.cpu.itb.fetch_accesses                       2                       # ITB accesses
system.cpu.itb.fetch_acv                            0                       # ITB acv
system.cpu.itb.fetch_hits                           2                       # ITB hits
system.cpu.itb.fetch_misses                         0                       # ITB misses
system.cpu.itb.read_accesses                        0                       # DTB read accesses
system.cpu.itb.read_acv                             0                       # DTB read access violations
system.cpu.itb.read_hits                            0                       # DTB read hits
system.cpu.itb.read_misses                          0                       # DTB read misses
system.cpu.itb.write_accesses                       0                       # DTB write accesses
system.cpu.itb.write_acv                            0                       # DTB write access violations
system.cpu.itb.write_hits                           0                       # DTB write hits
system.cpu.itb.write_misses                         0                       # DTB write misses
system.cpu.not_idle_fraction                        1                       # Percentage of non-idle cycles
system.cpu.numCycles                                2                       # number of cpu cycles simulated
system.cpu.num_insts                                2                       # Number of instructions executed
system.cpu.num_refs                                 0                       # Number of memory references
system.cpu.workload.PROG:num_syscalls               3                       # Number of system calls
system.l2.HardPFReq_avg_mshr_miss_latency 63794.758628                       # average HardPFReq mshr miss latency
system.l2.HardPFReq_mshr_miss_latency    160449304299                       # number of HardPFReq MSHR miss cycles
system.l2.HardPFReq_mshr_miss_rate                inf                       # mshr miss rate for HardPFReq accesses
system.l2.HardPFReq_mshr_misses               2515086                       # number of HardPFReq MSHR misses
system.l2.ReadExReq_accesses                     4025                       # number of ReadExReq accesses(hits+misses)
system.l2.ReadExReq_avg_miss_latency     73225.492773                       # average ReadExReq miss latency
system.l2.ReadExReq_avg_mshr_miss_latency 57739.353312                       # average ReadExReq mshr miss latency
system.l2.ReadExReq_hits                          220                       # number of ReadExReq hits
system.l2.ReadExReq_miss_latency            278623000                       # number of ReadExReq miss cycles
system.l2.ReadExReq_miss_rate                0.945342                       # miss rate for ReadExReq accesses
system.l2.ReadExReq_misses                       3805                       # number of ReadExReq misses
system.l2.ReadExReq_mshr_hits                       1                       # number of ReadExReq MSHR hits
system.l2.ReadExReq_mshr_miss_latency       219640500                       # number of ReadExReq MSHR miss cycles
system.l2.ReadExReq_mshr_miss_rate           0.945093                       # mshr miss rate for ReadExReq accesses
system.l2.ReadExReq_mshr_misses                  3804                       # number of ReadExReq MSHR misses
system.l2.ReadReq_accesses                    3526474                       # number of ReadReq accesses(hits+misses)
system.l2.ReadReq_avg_miss_latency       89216.850161                       # average ReadReq miss latency
system.l2.ReadReq_avg_mshr_miss_latency  73952.334576                       # average ReadReq mshr miss latency
system.l2.ReadReq_hits                        2421446                       # number of ReadReq hits
system.l2.ReadReq_miss_latency            98587117500                       # number of ReadReq miss cycles
system.l2.ReadReq_miss_rate                  0.313352                       # miss rate for ReadReq accesses
system.l2.ReadReq_misses                      1105028                       # number of ReadReq misses
system.l2.ReadReq_mshr_hits                       715                       # number of ReadReq MSHR hits
system.l2.ReadReq_mshr_miss_latency       81666450500                       # number of ReadReq MSHR miss cycles
system.l2.ReadReq_mshr_miss_rate             0.313149                       # mshr miss rate for ReadReq accesses
system.l2.ReadReq_mshr_misses                 1104312                       # number of ReadReq MSHR misses
system.l2.UpgradeReq_accesses                     936                       # number of UpgradeReq accesses(hits+misses)
system.l2.UpgradeReq_avg_miss_latency    72896.367521                       # average UpgradeReq miss latency
system.l2.UpgradeReq_avg_mshr_miss_latency 57505.876068                       # average UpgradeReq mshr miss latency
system.l2.UpgradeReq_miss_latency            68231000                       # number of UpgradeReq miss cycles
system.l2.UpgradeReq_miss_rate                      1                       # miss rate for UpgradeReq accesses
system.l2.UpgradeReq_misses                       936                       # number of UpgradeReq misses
system.l2.UpgradeReq_mshr_miss_latency       53825500                       # number of UpgradeReq MSHR miss cycles
system.l2.UpgradeReq_mshr_miss_rate                 1                       # mshr miss rate for UpgradeReq accesses
system.l2.UpgradeReq_mshr_misses                  936                       # number of UpgradeReq MSHR misses
system.l2.Writeback_accesses                     4506                       # number of Writeback accesses(hits+misses)
system.l2.Writeback_hits                         4506                       # number of Writeback hits
system.l2.avg_blocked_cycles::no_mshrs       no_value                       # average number of cycles each access was blocked
system.l2.avg_blocked_cycles::no_targets     no_value                       # average number of cycles each access was blocked
system.l2.avg_refs                           0.669443                       # Average number of references to valid blocks.
system.l2.blocked::no_mshrs                         0                       # number of cycles access was blocked
system.l2.blocked::no_targets                       0                       # number of cycles access was blocked
system.l2.blocked_cycles::no_mshrs                  0                       # number of cycles access was blocked
system.l2.blocked_cycles::no_targets                0                       # number of cycles access was blocked
system.l2.cache_copies                              0                       # number of cache copies performed
system.l2.demand_accesses                     3530499                       # number of demand (read+write) accesses
system.l2.demand_avg_miss_latency        89161.975248                       # average overall miss latency
system.l2.demand_avg_mshr_miss_latency   73896.677785                       # average overall mshr miss latency
system.l2.demand_hits                         2421666                       # number of demand (read+write) hits
system.l2.demand_miss_latency             98865740500                       # number of demand (read+write) miss cycles
system.l2.demand_miss_rate                   0.314073                       # miss rate for demand accesses
system.l2.demand_misses                       1108833                       # number of demand (read+write) misses
system.l2.demand_mshr_hits                        716                       # number of demand (read+write) MSHR hits
system.l2.demand_mshr_miss_latency        81886091000                       # number of demand (read+write) MSHR miss cycles
system.l2.demand_mshr_miss_rate              0.313870                       # mshr miss rate for demand accesses
system.l2.demand_mshr_misses                  1108116                       # number of demand (read+write) MSHR misses
system.l2.fast_writes                               0                       # number of fast writes performed
system.l2.mshr_cap_events                           0                       # number of times MSHR cap was activated
system.l2.no_allocate_misses                        0                       # Number of misses that were no-allocate
system.l2.occ_%::0                           0.271649                       # Average percentage of cache occupancy
system.l2.occ_%::1                           0.000390                       # Average percentage of cache occupancy
system.l2.occ_blocks::0                   4450.700555                       # Average occupied blocks per context
system.l2.occ_blocks::1                      6.383076                       # Average occupied blocks per context
system.l2.overall_accesses                    3530499                       # number of overall (read+write) accesses
system.l2.overall_avg_miss_latency       89161.975248                       # average overall miss latency
system.l2.overall_avg_mshr_miss_latency  66884.318153                       # average overall mshr miss latency
system.l2.overall_avg_mshr_uncacheable_latency     no_value                       # average overall mshr uncacheable latency
system.l2.overall_hits                        2421666                       # number of overall hits
system.l2.overall_miss_latency            98865740500                       # number of overall miss cycles
system.l2.overall_miss_rate                  0.314073                       # miss rate for overall accesses
system.l2.overall_misses                      1108833                       # number of overall misses
system.l2.overall_mshr_hits                       716                       # number of overall MSHR hits
system.l2.overall_mshr_miss_latency      242335395299                       # number of overall MSHR miss cycles
system.l2.overall_mshr_miss_rate             1.026258                       # mshr miss rate for overall accesses
system.l2.overall_mshr_misses                 3623202                       # number of overall MSHR misses
system.l2.overall_mshr_uncacheable_latency            0                       # number of overall MSHR uncacheable cycles
system.l2.overall_mshr_uncacheable_misses            0                       # number of overall MSHR uncacheable misses
system.l2.prefetch_accuracy                  0.962282                       # ratio of good prefetches to total prefetches
system.l2.prefetch_hits                       2420222                       # number of prefetched blocks that were accessed
system.l2.prefetcher.num_hwpf_already_in_prefetcher       127232                       # number of hwpf that were already in the prefetch queue
system.l2.prefetcher.num_hwpf_evicted               0                       # number of hwpf removed due to no buffer left
system.l2.prefetcher.num_hwpf_identified      3127729                       # number of hwpf identified
system.l2.prefetcher.num_hwpf_issued          2997167                       # number of hwpf issued
system.l2.prefetcher.num_hwpf_removed_MSHR_hit         3325                       # number of hwpf removed because MSHR allocated
system.l2.prefetcher.num_hwpf_span_page             0                       # number of hwpf spanning a virtual page
system.l2.prefetcher.num_hwpf_squashed_from_miss            0                       # number of hwpf that got squashed due to a miss aborting calculation time
system.l2.replacements                        3616439                       # number of replacements
system.l2.sampled_refs                        3621016                       # Sample count of references to valid blocks.
system.l2.soft_prefetch_mshr_full                   0                       # number of mshr full events for SW prefetching instrutions
system.l2.tagsinuse                       4457.083631                       # Cycle average of tags in use
system.l2.total_refs                          2424063                       # Total number of references to valid blocks.
system.l2.warmup_cycle                              0                       # Cycle when the warmup percentage was hit.
system.l2.writebacks                             4475                       # number of writebacks
system.switch_cpus.dtb.data_accesses          2832022                       # DTB accesses
system.switch_cpus.dtb.data_acv                     0                       # DTB access violations
system.switch_cpus.dtb.data_hits              2558233                       # DTB hits
system.switch_cpus.dtb.data_misses             273789                       # DTB misses
system.switch_cpus.dtb.fetch_accesses               0                       # ITB accesses
system.switch_cpus.dtb.fetch_acv                    0                       # ITB acv
system.switch_cpus.dtb.fetch_hits                   0                       # ITB hits
system.switch_cpus.dtb.fetch_misses                 0                       # ITB misses
system.switch_cpus.dtb.read_accesses          2682476                       # DTB read accesses
system.switch_cpus.dtb.read_acv                     0                       # DTB read access violations
system.switch_cpus.dtb.read_hits              2409028                       # DTB read hits
system.switch_cpus.dtb.read_misses             273448                       # DTB read misses
system.switch_cpus.dtb.write_accesses          149546                       # DTB write accesses
system.switch_cpus.dtb.write_acv                    0                       # DTB write access violations
system.switch_cpus.dtb.write_hits              149205                       # DTB write hits
system.switch_cpus.dtb.write_misses               341                       # DTB write misses
system.switch_cpus.idle_fraction                    1                       # Percentage of idle cycles
system.switch_cpus.itb.data_accesses                0                       # DTB accesses
system.switch_cpus.itb.data_acv                     0                       # DTB access violations
system.switch_cpus.itb.data_hits                    0                       # DTB hits
system.switch_cpus.itb.data_misses                  0                       # DTB misses
system.switch_cpus.itb.fetch_accesses        10273803                       # ITB accesses
system.switch_cpus.itb.fetch_acv                    0                       # ITB acv
system.switch_cpus.itb.fetch_hits            10273790                       # ITB hits
system.switch_cpus.itb.fetch_misses                13                       # ITB misses
system.switch_cpus.itb.read_accesses                0                       # DTB read accesses
system.switch_cpus.itb.read_acv                     0                       # DTB read access violations
system.switch_cpus.itb.read_hits                    0                       # DTB read hits
system.switch_cpus.itb.read_misses                  0                       # DTB read misses
system.switch_cpus.itb.write_accesses               0                       # DTB write accesses
system.switch_cpus.itb.write_acv                    0                       # DTB write access violations
system.switch_cpus.itb.write_hits                   0                       # DTB write hits
system.switch_cpus.itb.write_misses                 0                       # DTB write misses
system.switch_cpus.not_idle_fraction                0                       # Percentage of non-idle cycles
system.switch_cpus.numCycles                139389376                       # number of cpu cycles simulated
system.switch_cpus.num_insts                 10000001                       # Number of instructions executed
system.switch_cpus.num_refs                   2837031                       # Number of memory references
system.switch_cpus_1.BPredUnit.BTBCorrect            0                       # Number of correct BTB predictions (this stat may not work properly.
system.switch_cpus_1.BPredUnit.BTBHits        4204077                       # Number of BTB hits
system.switch_cpus_1.BPredUnit.BTBLookups      4396137                       # Number of BTB lookups
system.switch_cpus_1.BPredUnit.RASInCorrect           28                       # Number of incorrect RAS predictions.
system.switch_cpus_1.BPredUnit.condIncorrect        20488                       # Number of conditional branches incorrect
system.switch_cpus_1.BPredUnit.condPredicted      5242032                       # Number of conditional branches predicted
system.switch_cpus_1.BPredUnit.lookups        5387155                       # Number of BP lookups
system.switch_cpus_1.BPredUnit.usedRAS          53763                       # Number of times the RAS was used to get a target.
system.switch_cpus_1.commit.COM:branches      1639812                       # Number of branches committed
system.switch_cpus_1.commit.COM:bw_lim_events       274569                       # number cycles where commit BW limit reached
system.switch_cpus_1.commit.COM:bw_limited            0                       # number of insts not committed due to BW limits
system.switch_cpus_1.commit.COM:committed_per_cycle::samples     42439629                       # Number of insts commited each cycle
system.switch_cpus_1.commit.COM:committed_per_cycle::mean     0.243022                       # Number of insts commited each cycle
system.switch_cpus_1.commit.COM:committed_per_cycle::stdev     0.981410                       # Number of insts commited each cycle
system.switch_cpus_1.commit.COM:committed_per_cycle::underflows            0      0.00%      0.00% # Number of insts commited each cycle
system.switch_cpus_1.commit.COM:committed_per_cycle::0     38197948     90.01%     90.01% # Number of insts commited each cycle
system.switch_cpus_1.commit.COM:committed_per_cycle::1      2016184      4.75%     94.76% # Number of insts commited each cycle
system.switch_cpus_1.commit.COM:committed_per_cycle::2      1177362      2.77%     97.53% # Number of insts commited each cycle
system.switch_cpus_1.commit.COM:committed_per_cycle::3       139254      0.33%     97.86% # Number of insts commited each cycle
system.switch_cpus_1.commit.COM:committed_per_cycle::4        92266      0.22%     98.08% # Number of insts commited each cycle
system.switch_cpus_1.commit.COM:committed_per_cycle::5       324106      0.76%     98.84% # Number of insts commited each cycle
system.switch_cpus_1.commit.COM:committed_per_cycle::6       186648      0.44%     99.28% # Number of insts commited each cycle
system.switch_cpus_1.commit.COM:committed_per_cycle::7        31292      0.07%     99.35% # Number of insts commited each cycle
system.switch_cpus_1.commit.COM:committed_per_cycle::8       274569      0.65%    100.00% # Number of insts commited each cycle
system.switch_cpus_1.commit.COM:committed_per_cycle::overflows            0      0.00%    100.00% # Number of insts commited each cycle
system.switch_cpus_1.commit.COM:committed_per_cycle::min_value            0                       # Number of insts commited each cycle
system.switch_cpus_1.commit.COM:committed_per_cycle::max_value            8                       # Number of insts commited each cycle
system.switch_cpus_1.commit.COM:committed_per_cycle::total     42439629                       # Number of insts commited each cycle
system.switch_cpus_1.commit.COM:count        10313748                       # Number of instructions committed
system.switch_cpus_1.commit.COM:loads         2510912                       # Number of loads committed
system.switch_cpus_1.commit.COM:membars             0                       # Number of memory barriers committed
system.switch_cpus_1.commit.COM:refs          2655008                       # Number of memory references committed
system.switch_cpus_1.commit.COM:swp_count            0                       # Number of s/w prefetches committed
system.switch_cpus_1.commit.branchMispredicts        20166                       # The number of times a branch was mispredicted
system.switch_cpus_1.commit.commitCommittedInsts     10313748                       # The number of committed instructions
system.switch_cpus_1.commit.commitNonSpecStalls            1                       # The number of times commit has been forced to stall to communicate backwards
system.switch_cpus_1.commit.commitSquashedInsts     22091425                       # The number of squashed insts skipped by commit
system.switch_cpus_1.committedInsts          10000000                       # Number of Instructions Simulated
system.switch_cpus_1.committedInsts_total     10000000                       # Number of Instructions Simulated
system.switch_cpus_1.cpi                    10.529826                       # CPI: Cycles Per Instruction
system.switch_cpus_1.cpi_total              10.529826                       # CPI: Total CPI of All Threads
system.switch_cpus_1.decode.DECODE:BlockedCycles     27937984                       # Number of cycles decode is blocked
system.switch_cpus_1.decode.DECODE:BranchMispred          327                       # Number of times decode detected a branch misprediction
system.switch_cpus_1.decode.DECODE:BranchResolved        88993                       # Number of times decode resolved a branch
system.switch_cpus_1.decode.DECODE:DecodedInsts     33768559                       # Number of instructions handled by decode
system.switch_cpus_1.decode.DECODE:IdleCycles      7440010                       # Number of cycles decode is idle
system.switch_cpus_1.decode.DECODE:RunCycles      6779428                       # Number of cycles decode is running
system.switch_cpus_1.decode.DECODE:SquashCycles      2936135                       # Number of cycles decode is squashing
system.switch_cpus_1.decode.DECODE:SquashedInsts         1339                       # Number of squashed instructions handled by decode
system.switch_cpus_1.decode.DECODE:UnblockCycles       282206                       # Number of cycles decode is unblocking
system.switch_cpus_1.dtb.data_accesses        3998058                       # DTB accesses
system.switch_cpus_1.dtb.data_acv                   0                       # DTB access violations
system.switch_cpus_1.dtb.data_hits            3406259                       # DTB hits
system.switch_cpus_1.dtb.data_misses           591799                       # DTB misses
system.switch_cpus_1.dtb.fetch_accesses             0                       # ITB accesses
system.switch_cpus_1.dtb.fetch_acv                  0                       # ITB acv
system.switch_cpus_1.dtb.fetch_hits                 0                       # ITB hits
system.switch_cpus_1.dtb.fetch_misses               0                       # ITB misses
system.switch_cpus_1.dtb.read_accesses        3830454                       # DTB read accesses
system.switch_cpus_1.dtb.read_acv                   0                       # DTB read access violations
system.switch_cpus_1.dtb.read_hits            3239295                       # DTB read hits
system.switch_cpus_1.dtb.read_misses           591159                       # DTB read misses
system.switch_cpus_1.dtb.write_accesses        167604                       # DTB write accesses
system.switch_cpus_1.dtb.write_acv                  0                       # DTB write access violations
system.switch_cpus_1.dtb.write_hits            166964                       # DTB write hits
system.switch_cpus_1.dtb.write_misses             640                       # DTB write misses
system.switch_cpus_1.fetch.Branches           5387155                       # Number of branches that fetch encountered
system.switch_cpus_1.fetch.CacheLines         3262046                       # Number of cache lines fetched
system.switch_cpus_1.fetch.Cycles            10600672                       # Number of cycles fetch has run and was not squashing or blocked
system.switch_cpus_1.fetch.IcacheSquashes         4342                       # Number of outstanding Icache misses that were squashed
system.switch_cpus_1.fetch.Insts             35212755                       # Number of instructions fetch has processed
system.switch_cpus_1.fetch.SquashCycles        315908                       # Number of cycles fetch has spent squashing
system.switch_cpus_1.fetch.branchRate        0.051161                       # Number of branch fetches per cycle
system.switch_cpus_1.fetch.icacheStallCycles      3262046                       # Number of cycles fetch is stalled on an Icache miss
system.switch_cpus_1.fetch.predictedBranches      4257840                       # Number of branches that fetch has predicted taken
system.switch_cpus_1.fetch.rate              0.334410                       # Number of inst fetches per cycle
system.switch_cpus_1.fetch.rateDist::samples     45375764                       # Number of instructions fetched each cycle (Total)
system.switch_cpus_1.fetch.rateDist::mean     0.776026                       # Number of instructions fetched each cycle (Total)
system.switch_cpus_1.fetch.rateDist::stdev     1.995445                       # Number of instructions fetched each cycle (Total)
system.switch_cpus_1.fetch.rateDist::underflows            0      0.00%      0.00% # Number of instructions fetched each cycle (Total)
system.switch_cpus_1.fetch.rateDist::0       38037208     83.83%     83.83% # Number of instructions fetched each cycle (Total)
system.switch_cpus_1.fetch.rateDist::1         936542      2.06%     85.89% # Number of instructions fetched each cycle (Total)
system.switch_cpus_1.fetch.rateDist::2          74597      0.16%     86.06% # Number of instructions fetched each cycle (Total)
system.switch_cpus_1.fetch.rateDist::3          63797      0.14%     86.20% # Number of instructions fetched each cycle (Total)
system.switch_cpus_1.fetch.rateDist::4        3952117      8.71%     94.91% # Number of instructions fetched each cycle (Total)
system.switch_cpus_1.fetch.rateDist::5          55485      0.12%     95.03% # Number of instructions fetched each cycle (Total)
system.switch_cpus_1.fetch.rateDist::6          82060      0.18%     95.21% # Number of instructions fetched each cycle (Total)
system.switch_cpus_1.fetch.rateDist::7          34289      0.08%     95.28% # Number of instructions fetched each cycle (Total)
system.switch_cpus_1.fetch.rateDist::8        2139669      4.72%    100.00% # Number of instructions fetched each cycle (Total)
system.switch_cpus_1.fetch.rateDist::overflows            0      0.00%    100.00% # Number of instructions fetched each cycle (Total)
system.switch_cpus_1.fetch.rateDist::min_value            0                       # Number of instructions fetched each cycle (Total)
system.switch_cpus_1.fetch.rateDist::max_value            8                       # Number of instructions fetched each cycle (Total)
system.switch_cpus_1.fetch.rateDist::total     45375764                       # Number of instructions fetched each cycle (Total)
system.switch_cpus_1.idleCycles              59922499                       # Total number of cycles that the CPU has spent unscheduled due to idling
system.switch_cpus_1.iew.EXEC:branches        2328691                       # Number of branches executed
system.switch_cpus_1.iew.EXEC:nop              363273                       # number of nop insts executed
system.switch_cpus_1.iew.EXEC:rate           0.135589                       # Inst execution rate
system.switch_cpus_1.iew.EXEC:refs            4004440                       # number of memory reference insts executed
system.switch_cpus_1.iew.EXEC:stores           167604                       # Number of stores executed
system.switch_cpus_1.iew.EXEC:swp                   0                       # number of swp insts executed
system.switch_cpus_1.iew.WB:consumers        11933527                       # num instructions consuming a value
system.switch_cpus_1.iew.WB:count            13663130                       # cumulative count of insts written-back
system.switch_cpus_1.iew.WB:fanout           0.650495                       # average fanout of values written-back
system.switch_cpus_1.iew.WB:penalized               0                       # number of instrctions required to write to 'other' IQ
system.switch_cpus_1.iew.WB:penalized_rate            0                       # fraction of instructions written-back that wrote to 'other' IQ
system.switch_cpus_1.iew.WB:producers         7762702                       # num instructions producing a value
system.switch_cpus_1.iew.WB:rate             0.129756                       # insts written-back per cycle
system.switch_cpus_1.iew.WB:sent             14256016                       # cumulative count of insts sent to commit
system.switch_cpus_1.iew.branchMispredicts        23031                       # Number of branch mispredicts detected at execute
system.switch_cpus_1.iew.iewBlockCycles      17622249                       # Number of cycles IEW is blocking
system.switch_cpus_1.iew.iewDispLoadInsts      8757522                       # Number of dispatched load instructions
system.switch_cpus_1.iew.iewDispNonSpecInsts            1                       # Number of dispatched non-speculative instructions
system.switch_cpus_1.iew.iewDispSquashedInsts        20190                       # Number of squashed instructions skipped by dispatch
system.switch_cpus_1.iew.iewDispStoreInsts       184081                       # Number of dispatched store instructions
system.switch_cpus_1.iew.iewDispatchedInsts     32625675                       # Number of instructions dispatched to IQ
system.switch_cpus_1.iew.iewExecLoadInsts      3836836                       # Number of load instructions executed
system.switch_cpus_1.iew.iewExecSquashedInsts        19304                       # Number of squashed instructions skipped in execute
system.switch_cpus_1.iew.iewExecutedInsts     14277291                       # Number of executed instructions
system.switch_cpus_1.iew.iewIQFullEvents       808447                       # Number of times the IQ has become full, causing a stall
system.switch_cpus_1.iew.iewIdleCycles              0                       # Number of cycles IEW is idle
system.switch_cpus_1.iew.iewLSQFullEvents          823                       # Number of times the LSQ has become full, causing a stall
system.switch_cpus_1.iew.iewSquashCycles      2936135                       # Number of cycles IEW is squashing
system.switch_cpus_1.iew.iewUnblockCycles      1430441                       # Number of cycles IEW is unblocking
system.switch_cpus_1.iew.lsq.thread.0.blockedLoads            0                       # Number of blocked loads due to partial load-store forwarding
system.switch_cpus_1.iew.lsq.thread.0.cacheBlocked         5882                       # Number of times an access to memory failed due to the cache being blocked
system.switch_cpus_1.iew.lsq.thread.0.forwLoads        33167                       # Number of loads that had data forwarded from stores
system.switch_cpus_1.iew.lsq.thread.0.ignoredResponses          275                       # Number of memory responses ignored because the instruction is squashed
system.switch_cpus_1.iew.lsq.thread.0.invAddrLoads            0                       # Number of loads ignored due to an invalid address
system.switch_cpus_1.iew.lsq.thread.0.invAddrSwpfs            0                       # Number of software prefetches ignored due to an invalid address
system.switch_cpus_1.iew.lsq.thread.0.memOrderViolation          580                       # Number of memory ordering violations
system.switch_cpus_1.iew.lsq.thread.0.rescheduledLoads            0                       # Number of loads that were rescheduled
system.switch_cpus_1.iew.lsq.thread.0.squashedLoads      6246589                       # Number of loads squashed
system.switch_cpus_1.iew.lsq.thread.0.squashedStores        39985                       # Number of stores squashed
system.switch_cpus_1.iew.memOrderViolationEvents          580                       # Number of memory order violations
system.switch_cpus_1.iew.predictedNotTakenIncorrect         7443                       # Number of branches that were predicted not taken incorrectly
system.switch_cpus_1.iew.predictedTakenIncorrect        15588                       # Number of branches that were predicted taken incorrectly
system.switch_cpus_1.ipc                     0.094968                       # IPC: Instructions Per Cycle
system.switch_cpus_1.ipc_total               0.094968                       # IPC: Total IPC of All Threads
system.switch_cpus_1.iq.ISSUE:FU_type_0::No_OpClass            0      0.00%      0.00% # Type of FU issued
system.switch_cpus_1.iq.ISSUE:FU_type_0::IntAlu     10279117     71.90%     71.90% # Type of FU issued
system.switch_cpus_1.iq.ISSUE:FU_type_0::IntMult         1084      0.01%     71.91% # Type of FU issued
system.switch_cpus_1.iq.ISSUE:FU_type_0::IntDiv            0      0.00%     71.91% # Type of FU issued
system.switch_cpus_1.iq.ISSUE:FU_type_0::FloatAdd         4271      0.03%     71.94% # Type of FU issued
system.switch_cpus_1.iq.ISSUE:FU_type_0::FloatCmp            0      0.00%     71.94% # Type of FU issued
system.switch_cpus_1.iq.ISSUE:FU_type_0::FloatCvt         1100      0.01%     71.94% # Type of FU issued
system.switch_cpus_1.iq.ISSUE:FU_type_0::FloatMult          220      0.00%     71.95% # Type of FU issued
system.switch_cpus_1.iq.ISSUE:FU_type_0::FloatDiv            0      0.00%     71.95% # Type of FU issued
system.switch_cpus_1.iq.ISSUE:FU_type_0::FloatSqrt            0      0.00%     71.95% # Type of FU issued
system.switch_cpus_1.iq.ISSUE:FU_type_0::MemRead      3841495     26.87%     98.82% # Type of FU issued
system.switch_cpus_1.iq.ISSUE:FU_type_0::MemWrite       169308      1.18%    100.00% # Type of FU issued
system.switch_cpus_1.iq.ISSUE:FU_type_0::IprAccess            0      0.00%    100.00% # Type of FU issued
system.switch_cpus_1.iq.ISSUE:FU_type_0::InstPrefetch            0      0.00%    100.00% # Type of FU issued
system.switch_cpus_1.iq.ISSUE:FU_type_0::total     14296595                       # Type of FU issued
system.switch_cpus_1.iq.ISSUE:fu_busy_cnt         8831                       # FU busy when requested
system.switch_cpus_1.iq.ISSUE:fu_busy_rate     0.000618                       # FU busy rate (busy events/executed inst)
system.switch_cpus_1.iq.ISSUE:fu_full::No_OpClass            0      0.00%      0.00% # attempts to use FU when none available
system.switch_cpus_1.iq.ISSUE:fu_full::IntAlu           69      0.78%      0.78% # attempts to use FU when none available
system.switch_cpus_1.iq.ISSUE:fu_full::IntMult            0      0.00%      0.78% # attempts to use FU when none available
system.switch_cpus_1.iq.ISSUE:fu_full::IntDiv            0      0.00%      0.78% # attempts to use FU when none available
system.switch_cpus_1.iq.ISSUE:fu_full::FloatAdd            0      0.00%      0.78% # attempts to use FU when none available
system.switch_cpus_1.iq.ISSUE:fu_full::FloatCmp            0      0.00%      0.78% # attempts to use FU when none available
system.switch_cpus_1.iq.ISSUE:fu_full::FloatCvt            0      0.00%      0.78% # attempts to use FU when none available
system.switch_cpus_1.iq.ISSUE:fu_full::FloatMult            0      0.00%      0.78% # attempts to use FU when none available
system.switch_cpus_1.iq.ISSUE:fu_full::FloatDiv            0      0.00%      0.78% # attempts to use FU when none available
system.switch_cpus_1.iq.ISSUE:fu_full::FloatSqrt            0      0.00%      0.78% # attempts to use FU when none available
system.switch_cpus_1.iq.ISSUE:fu_full::MemRead         4966     56.23%     57.02% # attempts to use FU when none available
system.switch_cpus_1.iq.ISSUE:fu_full::MemWrite         3796     42.98%    100.00% # attempts to use FU when none available
system.switch_cpus_1.iq.ISSUE:fu_full::IprAccess            0      0.00%    100.00% # attempts to use FU when none available
system.switch_cpus_1.iq.ISSUE:fu_full::InstPrefetch            0      0.00%    100.00% # attempts to use FU when none available
system.switch_cpus_1.iq.ISSUE:issued_per_cycle::samples     45375764                       # Number of insts issued each cycle
system.switch_cpus_1.iq.ISSUE:issued_per_cycle::mean     0.315071                       # Number of insts issued each cycle
system.switch_cpus_1.iq.ISSUE:issued_per_cycle::stdev     0.700173                       # Number of insts issued each cycle
system.switch_cpus_1.iq.ISSUE:issued_per_cycle::underflows            0      0.00%      0.00% # Number of insts issued each cycle
system.switch_cpus_1.iq.ISSUE:issued_per_cycle::0     35104143     77.36%     77.36% # Number of insts issued each cycle
system.switch_cpus_1.iq.ISSUE:issued_per_cycle::1      7901374     17.41%     94.78% # Number of insts issued each cycle
system.switch_cpus_1.iq.ISSUE:issued_per_cycle::2      1115735      2.46%     97.24% # Number of insts issued each cycle
system.switch_cpus_1.iq.ISSUE:issued_per_cycle::3       975857      2.15%     99.39% # Number of insts issued each cycle
system.switch_cpus_1.iq.ISSUE:issued_per_cycle::4       176944      0.39%     99.78% # Number of insts issued each cycle
system.switch_cpus_1.iq.ISSUE:issued_per_cycle::5        86789      0.19%     99.97% # Number of insts issued each cycle
system.switch_cpus_1.iq.ISSUE:issued_per_cycle::6        10226      0.02%     99.99% # Number of insts issued each cycle
system.switch_cpus_1.iq.ISSUE:issued_per_cycle::7         4465      0.01%    100.00% # Number of insts issued each cycle
system.switch_cpus_1.iq.ISSUE:issued_per_cycle::8          231      0.00%    100.00% # Number of insts issued each cycle
system.switch_cpus_1.iq.ISSUE:issued_per_cycle::overflows            0      0.00%    100.00% # Number of insts issued each cycle
system.switch_cpus_1.iq.ISSUE:issued_per_cycle::min_value            0                       # Number of insts issued each cycle
system.switch_cpus_1.iq.ISSUE:issued_per_cycle::max_value            8                       # Number of insts issued each cycle
system.switch_cpus_1.iq.ISSUE:issued_per_cycle::total     45375764                       # Number of insts issued each cycle
system.switch_cpus_1.iq.ISSUE:rate           0.135772                       # Inst issue rate
system.switch_cpus_1.iq.iqInstsAdded         32262401                       # Number of instructions added to the IQ (excludes non-spec)
system.switch_cpus_1.iq.iqInstsIssued        14296595                       # Number of instructions issued
system.switch_cpus_1.iq.iqNonSpecInstsAdded            1                       # Number of non-speculative instructions added to the IQ
system.switch_cpus_1.iq.iqSquashedInstsExamined     22242576                       # Number of squashed instructions iterated over during squash; mainly for profiling
system.switch_cpus_1.iq.iqSquashedInstsIssued          425                       # Number of squashed instructions issued
system.switch_cpus_1.iq.iqSquashedOperandsExamined     31589340                       # Number of squashed operands that are examined and possibly removed from graph
system.switch_cpus_1.itb.data_accesses              0                       # DTB accesses
system.switch_cpus_1.itb.data_acv                   0                       # DTB access violations
system.switch_cpus_1.itb.data_hits                  0                       # DTB hits
system.switch_cpus_1.itb.data_misses                0                       # DTB misses
system.switch_cpus_1.itb.fetch_accesses       3262116                       # ITB accesses
system.switch_cpus_1.itb.fetch_acv                  0                       # ITB acv
system.switch_cpus_1.itb.fetch_hits           3262046                       # ITB hits
system.switch_cpus_1.itb.fetch_misses              70                       # ITB misses
system.switch_cpus_1.itb.read_accesses              0                       # DTB read accesses
system.switch_cpus_1.itb.read_acv                   0                       # DTB read access violations
system.switch_cpus_1.itb.read_hits                  0                       # DTB read hits
system.switch_cpus_1.itb.read_misses                0                       # DTB read misses
system.switch_cpus_1.itb.write_accesses             0                       # DTB write accesses
system.switch_cpus_1.itb.write_acv                  0                       # DTB write access violations
system.switch_cpus_1.itb.write_hits                 0                       # DTB write hits
system.switch_cpus_1.itb.write_misses               0                       # DTB write misses
system.switch_cpus_1.memDep0.conflictingLoads        66637                       # Number of conflicting loads.
system.switch_cpus_1.memDep0.conflictingStores         2427                       # Number of conflicting stores.
system.switch_cpus_1.memDep0.insertedLoads      8757522                       # Number of loads inserted to the mem dependence unit.
system.switch_cpus_1.memDep0.insertedStores       184081                       # Number of stores inserted to the mem dependence unit.
system.switch_cpus_1.numCycles              105298263                       # number of cpu cycles simulated
system.switch_cpus_1.rename.RENAME:BlockCycles     24223116                       # Number of cycles rename is blocking
system.switch_cpus_1.rename.RENAME:CommittedMaps      8255878                       # Number of HB maps that are committed
system.switch_cpus_1.rename.RENAME:IQFullEvents      3736253                       # Number of times rename has blocked due to IQ full
system.switch_cpus_1.rename.RENAME:IdleCycles      8314704                       # Number of cycles rename is idle
system.switch_cpus_1.rename.RENAME:LSQFullEvents        27084                       # Number of times rename has blocked due to LSQ full
system.switch_cpus_1.rename.RENAME:ROBFullEvents         1161                       # Number of times rename has blocked due to ROB full
system.switch_cpus_1.rename.RENAME:RenameLookups     52863594                       # Number of register rename lookups that rename has made
system.switch_cpus_1.rename.RENAME:RenamedInsts     32842397                       # Number of instructions processed by rename
system.switch_cpus_1.rename.RENAME:RenamedOperands     27333306                       # Number of destination operands rename has renamed
system.switch_cpus_1.rename.RENAME:RunCycles      6257564                       # Number of cycles rename is running
system.switch_cpus_1.rename.RENAME:SquashCycles      2936135                       # Number of cycles rename is squashing
system.switch_cpus_1.rename.RENAME:UnblockCycles      3644233                       # Number of cycles rename is unblocking
system.switch_cpus_1.rename.RENAME:UndoneMaps     19077362                       # Number of HB maps that are undone due to squashing
system.switch_cpus_1.rename.RENAME:serializeStallCycles           11                       # count of cycles rename stalled for serializing inst
system.switch_cpus_1.rename.RENAME:serializingInsts            1                       # count of serializing insts renamed
system.switch_cpus_1.rename.RENAME:skidInsts      7283230                       # count of insts added to the skid buffer
system.switch_cpus_1.rename.RENAME:tempSerializingInsts            1                       # count of temporary serializing insts renamed
system.switch_cpus_1.timesIdled               1155687                       # Number of times that the entire CPU went into an idle state and unscheduled itself

---------- End Simulation Statistics   ----------
