
---------- Begin Simulation Statistics ----------
host_inst_rate                                 123502                       # Simulator instruction rate (inst/s)
host_mem_usage                                 333988                       # Number of bytes of host memory used
host_seconds                                   161.94                       # Real time elapsed on the host
host_tick_rate                             1218358157                       # Simulator tick rate (ticks/s)
sim_freq                                 1000000000000                       # Frequency of simulated ticks
sim_insts                                    20000003                       # Number of instructions simulated
sim_seconds                                  0.197303                       # Number of seconds simulated
sim_ticks                                197302633000                       # Number of ticks simulated
system.cpu.dcache.ReadReq_accesses            5610082                       # number of ReadReq accesses(hits+misses)
system.cpu.dcache.ReadReq_avg_miss_latency 66395.160076                       # average ReadReq miss latency
system.cpu.dcache.ReadReq_avg_mshr_miss_latency 63277.429142                       # average ReadReq mshr miss latency
system.cpu.dcache.ReadReq_hits                2084841                       # number of ReadReq hits
system.cpu.dcache.ReadReq_miss_latency   234058940500                       # number of ReadReq miss cycles
system.cpu.dcache.ReadReq_miss_rate          0.628376                       # miss rate for ReadReq accesses
system.cpu.dcache.ReadReq_misses              3525241                       # number of ReadReq misses
system.cpu.dcache.ReadReq_mshr_hits              4214                       # number of ReadReq MSHR hits
system.cpu.dcache.ReadReq_mshr_miss_latency 222801536500                       # number of ReadReq MSHR miss cycles
system.cpu.dcache.ReadReq_mshr_miss_rate     0.627625                       # mshr miss rate for ReadReq accesses
system.cpu.dcache.ReadReq_mshr_misses         3521027                       # number of ReadReq MSHR misses
system.cpu.dcache.WriteReq_accesses            293301                       # number of WriteReq accesses(hits+misses)
system.cpu.dcache.WriteReq_avg_miss_latency 68532.676959                       # average WriteReq miss latency
system.cpu.dcache.WriteReq_avg_mshr_miss_latency 67518.631643                       # average WriteReq mshr miss latency
system.cpu.dcache.WriteReq_hits                285528                       # number of WriteReq hits
system.cpu.dcache.WriteReq_miss_latency     532704498                       # number of WriteReq miss cycles
system.cpu.dcache.WriteReq_miss_rate         0.026502                       # miss rate for WriteReq accesses
system.cpu.dcache.WriteReq_misses                7773                       # number of WriteReq misses
system.cpu.dcache.WriteReq_mshr_hits             2862                       # number of WriteReq MSHR hits
system.cpu.dcache.WriteReq_mshr_miss_latency    331584000                       # number of WriteReq MSHR miss cycles
system.cpu.dcache.WriteReq_mshr_miss_rate     0.016744                       # mshr miss rate for WriteReq accesses
system.cpu.dcache.WriteReq_mshr_misses           4911                       # number of WriteReq MSHR misses
system.cpu.dcache.avg_blocked_cycles::no_mshrs         7250                       # average number of cycles each access was blocked
system.cpu.dcache.avg_blocked_cycles::no_targets 65248.494990                       # average number of cycles each access was blocked
system.cpu.dcache.avg_refs                   0.672775                       # Average number of references to valid blocks.
system.cpu.dcache.blocked::no_mshrs                 2                       # number of cycles access was blocked
system.cpu.dcache.blocked::no_targets             499                       # number of cycles access was blocked
system.cpu.dcache.blocked_cycles::no_mshrs        14500                       # number of cycles access was blocked
system.cpu.dcache.blocked_cycles::no_targets     32558999                       # number of cycles access was blocked
system.cpu.dcache.cache_copies                      0                       # number of cache copies performed
system.cpu.dcache.demand_accesses             5903383                       # number of demand (read+write) accesses
system.cpu.dcache.demand_avg_miss_latency 66399.862836                       # average overall miss latency
system.cpu.dcache.demand_avg_mshr_miss_latency 63283.336377                       # average overall mshr miss latency
system.cpu.dcache.demand_hits                 2370369                       # number of demand (read+write) hits
system.cpu.dcache.demand_miss_latency    234591644998                       # number of demand (read+write) miss cycles
system.cpu.dcache.demand_miss_rate           0.598473                       # miss rate for demand accesses
system.cpu.dcache.demand_misses               3533014                       # number of demand (read+write) misses
system.cpu.dcache.demand_mshr_hits               7076                       # number of demand (read+write) MSHR hits
system.cpu.dcache.demand_mshr_miss_latency 223133120500                       # number of demand (read+write) MSHR miss cycles
system.cpu.dcache.demand_mshr_miss_rate      0.597274                       # mshr miss rate for demand accesses
system.cpu.dcache.demand_mshr_misses          3525938                       # number of demand (read+write) MSHR misses
system.cpu.dcache.fast_writes                       0                       # number of fast writes performed
system.cpu.dcache.mshr_cap_events                   0                       # number of times MSHR cap was activated
system.cpu.dcache.no_allocate_misses                0                       # Number of misses that were no-allocate
system.cpu.dcache.occ_%::0                   0.603272                       # Average percentage of cache occupancy
system.cpu.dcache.occ_blocks::0            617.750888                       # Average occupied blocks per context
system.cpu.dcache.overall_accesses            5903383                       # number of overall (read+write) accesses
system.cpu.dcache.overall_avg_miss_latency 66399.862836                       # average overall miss latency
system.cpu.dcache.overall_avg_mshr_miss_latency 63283.336377                       # average overall mshr miss latency
system.cpu.dcache.overall_avg_mshr_uncacheable_latency     no_value                       # average overall mshr uncacheable latency
system.cpu.dcache.overall_hits                2370369                       # number of overall hits
system.cpu.dcache.overall_miss_latency   234591644998                       # number of overall miss cycles
system.cpu.dcache.overall_miss_rate          0.598473                       # miss rate for overall accesses
system.cpu.dcache.overall_misses              3533014                       # number of overall misses
system.cpu.dcache.overall_mshr_hits              7076                       # number of overall MSHR hits
system.cpu.dcache.overall_mshr_miss_latency 223133120500                       # number of overall MSHR miss cycles
system.cpu.dcache.overall_mshr_miss_rate     0.597274                       # mshr miss rate for overall accesses
system.cpu.dcache.overall_mshr_misses         3525938                       # number of overall MSHR misses
system.cpu.dcache.overall_mshr_uncacheable_latency            0                       # number of overall MSHR uncacheable cycles
system.cpu.dcache.overall_mshr_uncacheable_misses            0                       # number of overall MSHR uncacheable misses
system.cpu.dcache.prefetch_accuracy          no_value                       # ratio of good prefetches to total prefetches
system.cpu.dcache.prefetch_hits                     0                       # number of prefetched blocks that were accessed
system.cpu.dcache.replacements                3524222                       # number of replacements
system.cpu.dcache.sampled_refs                3525073                       # Sample count of references to valid blocks.
system.cpu.dcache.soft_prefetch_mshr_full            0                       # number of mshr full events for SW prefetching instrutions
system.cpu.dcache.tagsinuse                617.750888                       # Cycle average of tags in use
system.cpu.dcache.total_refs                  2371582                       # Total number of references to valid blocks.
system.cpu.dcache.warmup_cycle                      0                       # Cycle when the warmup percentage was hit.
system.cpu.dcache.writebacks                     4506                       # number of writebacks
system.cpu.dtb.data_accesses                        0                       # DTB accesses
system.cpu.dtb.data_acv                             0                       # DTB access violations
system.cpu.dtb.data_hits                            0                       # DTB hits
system.cpu.dtb.data_misses                          0                       # DTB misses
system.cpu.dtb.fetch_accesses                       0                       # ITB accesses
system.cpu.dtb.fetch_acv                            0                       # ITB acv
system.cpu.dtb.fetch_hits                           0                       # ITB hits
system.cpu.dtb.fetch_misses                         0                       # ITB misses
system.cpu.dtb.read_accesses                        0                       # DTB read accesses
system.cpu.dtb.read_acv                             0                       # DTB read access violations
system.cpu.dtb.read_hits                            0                       # DTB read hits
system.cpu.dtb.read_misses                          0                       # DTB read misses
system.cpu.dtb.write_accesses                       0                       # DTB write accesses
system.cpu.dtb.write_acv                            0                       # DTB write access violations
system.cpu.dtb.write_hits                           0                       # DTB write hits
system.cpu.dtb.write_misses                         0                       # DTB write misses
system.cpu.icache.ReadReq_accesses           13502507                       # number of ReadReq accesses(hits+misses)
system.cpu.icache.ReadReq_avg_miss_latency 36537.693415                       # average ReadReq miss latency
system.cpu.icache.ReadReq_avg_mshr_miss_latency 32772.023233                       # average ReadReq mshr miss latency
system.cpu.icache.ReadReq_hits               13496949                       # number of ReadReq hits
system.cpu.icache.ReadReq_miss_latency      203076500                       # number of ReadReq miss cycles
system.cpu.icache.ReadReq_miss_rate          0.000412                       # miss rate for ReadReq accesses
system.cpu.icache.ReadReq_misses                 5558                       # number of ReadReq misses
system.cpu.icache.ReadReq_mshr_hits               392                       # number of ReadReq MSHR hits
system.cpu.icache.ReadReq_mshr_miss_latency    169267500                       # number of ReadReq MSHR miss cycles
system.cpu.icache.ReadReq_mshr_miss_rate     0.000383                       # mshr miss rate for ReadReq accesses
system.cpu.icache.ReadReq_mshr_misses            5165                       # number of ReadReq MSHR misses
system.cpu.icache.avg_blocked_cycles::no_mshrs     no_value                       # average number of cycles each access was blocked
system.cpu.icache.avg_blocked_cycles::no_targets     no_value                       # average number of cycles each access was blocked
system.cpu.icache.avg_refs                2612.649826                       # Average number of references to valid blocks.
system.cpu.icache.blocked::no_mshrs                 0                       # number of cycles access was blocked
system.cpu.icache.blocked::no_targets               0                       # number of cycles access was blocked
system.cpu.icache.blocked_cycles::no_mshrs            0                       # number of cycles access was blocked
system.cpu.icache.blocked_cycles::no_targets            0                       # number of cycles access was blocked
system.cpu.icache.cache_copies                      0                       # number of cache copies performed
system.cpu.icache.demand_accesses            13502507                       # number of demand (read+write) accesses
system.cpu.icache.demand_avg_miss_latency 36537.693415                       # average overall miss latency
system.cpu.icache.demand_avg_mshr_miss_latency 32772.023233                       # average overall mshr miss latency
system.cpu.icache.demand_hits                13496949                       # number of demand (read+write) hits
system.cpu.icache.demand_miss_latency       203076500                       # number of demand (read+write) miss cycles
system.cpu.icache.demand_miss_rate           0.000412                       # miss rate for demand accesses
system.cpu.icache.demand_misses                  5558                       # number of demand (read+write) misses
system.cpu.icache.demand_mshr_hits                392                       # number of demand (read+write) MSHR hits
system.cpu.icache.demand_mshr_miss_latency    169267500                       # number of demand (read+write) MSHR miss cycles
system.cpu.icache.demand_mshr_miss_rate      0.000383                       # mshr miss rate for demand accesses
system.cpu.icache.demand_mshr_misses             5165                       # number of demand (read+write) MSHR misses
system.cpu.icache.fast_writes                       0                       # number of fast writes performed
system.cpu.icache.mshr_cap_events                   0                       # number of times MSHR cap was activated
system.cpu.icache.no_allocate_misses                0                       # Number of misses that were no-allocate
system.cpu.icache.occ_%::0                   0.362712                       # Average percentage of cache occupancy
system.cpu.icache.occ_blocks::0            185.708609                       # Average occupied blocks per context
system.cpu.icache.overall_accesses           13502507                       # number of overall (read+write) accesses
system.cpu.icache.overall_avg_miss_latency 36537.693415                       # average overall miss latency
system.cpu.icache.overall_avg_mshr_miss_latency 32772.023233                       # average overall mshr miss latency
system.cpu.icache.overall_avg_mshr_uncacheable_latency     no_value                       # average overall mshr uncacheable latency
system.cpu.icache.overall_hits               13496949                       # number of overall hits
system.cpu.icache.overall_miss_latency      203076500                       # number of overall miss cycles
system.cpu.icache.overall_miss_rate          0.000412                       # miss rate for overall accesses
system.cpu.icache.overall_misses                 5558                       # number of overall misses
system.cpu.icache.overall_mshr_hits               392                       # number of overall MSHR hits
system.cpu.icache.overall_mshr_miss_latency    169267500                       # number of overall MSHR miss cycles
system.cpu.icache.overall_mshr_miss_rate     0.000383                       # mshr miss rate for overall accesses
system.cpu.icache.overall_mshr_misses            5165                       # number of overall MSHR misses
system.cpu.icache.overall_mshr_uncacheable_latency            0                       # number of overall MSHR uncacheable cycles
system.cpu.icache.overall_mshr_uncacheable_misses            0                       # number of overall MSHR uncacheable misses
system.cpu.icache.prefetch_accuracy          no_value                       # ratio of good prefetches to total prefetches
system.cpu.icache.prefetch_hits                     0                       # number of prefetched blocks that were accessed
system.cpu.icache.replacements                   4957                       # number of replacements
system.cpu.icache.sampled_refs                   5166                       # Sample count of references to valid blocks.
system.cpu.icache.soft_prefetch_mshr_full            0                       # number of mshr full events for SW prefetching instrutions
system.cpu.icache.tagsinuse                185.708609                       # Cycle average of tags in use
system.cpu.icache.total_refs                 13496949                       # Total number of references to valid blocks.
system.cpu.icache.warmup_cycle                      0                       # Cycle when the warmup percentage was hit.
system.cpu.icache.writebacks                        0                       # number of writebacks
system.cpu.idle_fraction                            0                       # Percentage of idle cycles
system.cpu.itb.data_accesses                        0                       # DTB accesses
system.cpu.itb.data_acv                             0                       # DTB access violations
system.cpu.itb.data_hits                            0                       # DTB hits
system.cpu.itb.data_misses                          0                       # DTB misses
system.cpu.itb.fetch_accesses                       2                       # ITB accesses
system.cpu.itb.fetch_acv                            0                       # ITB acv
system.cpu.itb.fetch_hits                           2                       # ITB hits
system.cpu.itb.fetch_misses                         0                       # ITB misses
system.cpu.itb.read_accesses                        0                       # DTB read accesses
system.cpu.itb.read_acv                             0                       # DTB read access violations
system.cpu.itb.read_hits                            0                       # DTB read hits
system.cpu.itb.read_misses                          0                       # DTB read misses
system.cpu.itb.write_accesses                       0                       # DTB write accesses
system.cpu.itb.write_acv                            0                       # DTB write access violations
system.cpu.itb.write_hits                           0                       # DTB write hits
system.cpu.itb.write_misses                         0                       # DTB write misses
system.cpu.not_idle_fraction                        1                       # Percentage of non-idle cycles
system.cpu.numCycles                                2                       # number of cpu cycles simulated
system.cpu.num_insts                                2                       # Number of instructions executed
system.cpu.num_refs                                 0                       # Number of memory references
system.cpu.workload.PROG:num_syscalls               3                       # Number of system calls
system.l2.HardPFReq_avg_mshr_miss_latency 63702.048182                       # average HardPFReq mshr miss latency
system.l2.HardPFReq_mshr_miss_latency       290863552                       # number of HardPFReq MSHR miss cycles
system.l2.HardPFReq_mshr_miss_rate                inf                       # mshr miss rate for HardPFReq accesses
system.l2.HardPFReq_mshr_misses                  4566                       # number of HardPFReq MSHR misses
system.l2.ReadExReq_accesses                     4047                       # number of ReadExReq accesses(hits+misses)
system.l2.ReadExReq_avg_miss_latency     70371.016072                       # average ReadExReq miss latency
system.l2.ReadExReq_avg_mshr_miss_latency 54948.238186                       # average ReadExReq mshr miss latency
system.l2.ReadExReq_hits                          376                       # number of ReadExReq hits
system.l2.ReadExReq_miss_latency            258332000                       # number of ReadExReq miss cycles
system.l2.ReadExReq_miss_rate                0.907092                       # miss rate for ReadExReq accesses
system.l2.ReadExReq_misses                       3671                       # number of ReadExReq misses
system.l2.ReadExReq_mshr_hits                      10                       # number of ReadExReq MSHR hits
system.l2.ReadExReq_mshr_miss_latency       201165500                       # number of ReadExReq MSHR miss cycles
system.l2.ReadExReq_mshr_miss_rate           0.904621                       # mshr miss rate for ReadExReq accesses
system.l2.ReadExReq_mshr_misses                  3661                       # number of ReadExReq MSHR misses
system.l2.ReadReq_accesses                    3526193                       # number of ReadReq accesses(hits+misses)
system.l2.ReadReq_avg_miss_latency       61957.548834                       # average ReadReq miss latency
system.l2.ReadReq_avg_mshr_miss_latency  45818.680255                       # average ReadReq mshr miss latency
system.l2.ReadReq_hits                           3086                       # number of ReadReq hits
system.l2.ReadReq_miss_latency           218283074000                       # number of ReadReq miss cycles
system.l2.ReadReq_miss_rate                  0.999125                       # miss rate for ReadReq accesses
system.l2.ReadReq_misses                      3523107                       # number of ReadReq misses
system.l2.ReadReq_mshr_hits                         1                       # number of ReadReq MSHR hits
system.l2.ReadReq_mshr_miss_latency      161424021500                       # number of ReadReq MSHR miss cycles
system.l2.ReadReq_mshr_miss_rate             0.999124                       # mshr miss rate for ReadReq accesses
system.l2.ReadReq_mshr_misses                 3523105                       # number of ReadReq MSHR misses
system.l2.UpgradeReq_accesses                     914                       # number of UpgradeReq accesses(hits+misses)
system.l2.UpgradeReq_avg_miss_latency    67518.599562                       # average UpgradeReq miss latency
system.l2.UpgradeReq_avg_mshr_miss_latency 52014.223195                       # average UpgradeReq mshr miss latency
system.l2.UpgradeReq_miss_latency            61712000                       # number of UpgradeReq miss cycles
system.l2.UpgradeReq_miss_rate                      1                       # miss rate for UpgradeReq accesses
system.l2.UpgradeReq_misses                       914                       # number of UpgradeReq misses
system.l2.UpgradeReq_mshr_miss_latency       47541000                       # number of UpgradeReq MSHR miss cycles
system.l2.UpgradeReq_mshr_miss_rate                 1                       # mshr miss rate for UpgradeReq accesses
system.l2.UpgradeReq_mshr_misses                  914                       # number of UpgradeReq MSHR misses
system.l2.Writeback_accesses                     4506                       # number of Writeback accesses(hits+misses)
system.l2.Writeback_hits                         4506                       # number of Writeback hits
system.l2.avg_blocked_cycles::no_mshrs       no_value                       # average number of cycles each access was blocked
system.l2.avg_blocked_cycles::no_targets     no_value                       # average number of cycles each access was blocked
system.l2.avg_refs                           0.001819                       # Average number of references to valid blocks.
system.l2.blocked::no_mshrs                         0                       # number of cycles access was blocked
system.l2.blocked::no_targets                       0                       # number of cycles access was blocked
system.l2.blocked_cycles::no_mshrs                  0                       # number of cycles access was blocked
system.l2.blocked_cycles::no_targets                0                       # number of cycles access was blocked
system.l2.cache_copies                              0                       # number of cache copies performed
system.l2.demand_accesses                     3530240                       # number of demand (read+write) accesses
system.l2.demand_avg_miss_latency        61966.306357                       # average overall miss latency
system.l2.demand_avg_mshr_miss_latency   45828.157298                       # average overall mshr miss latency
system.l2.demand_hits                            3462                       # number of demand (read+write) hits
system.l2.demand_miss_latency            218541406000                       # number of demand (read+write) miss cycles
system.l2.demand_miss_rate                   0.999019                       # miss rate for demand accesses
system.l2.demand_misses                       3526778                       # number of demand (read+write) misses
system.l2.demand_mshr_hits                         11                       # number of demand (read+write) MSHR hits
system.l2.demand_mshr_miss_latency       161625187000                       # number of demand (read+write) MSHR miss cycles
system.l2.demand_mshr_miss_rate              0.999016                       # mshr miss rate for demand accesses
system.l2.demand_mshr_misses                  3526766                       # number of demand (read+write) MSHR misses
system.l2.fast_writes                               0                       # number of fast writes performed
system.l2.mshr_cap_events                           0                       # number of times MSHR cap was activated
system.l2.no_allocate_misses                        0                       # Number of misses that were no-allocate
system.l2.occ_%::0                           0.281067                       # Average percentage of cache occupancy
system.l2.occ_%::1                           0.000234                       # Average percentage of cache occupancy
system.l2.occ_blocks::0                   4605.004339                       # Average occupied blocks per context
system.l2.occ_blocks::1                      3.825702                       # Average occupied blocks per context
system.l2.overall_accesses                    3530240                       # number of overall (read+write) accesses
system.l2.overall_avg_miss_latency       61966.306357                       # average overall miss latency
system.l2.overall_avg_mshr_miss_latency  45851.268176                       # average overall mshr miss latency
system.l2.overall_avg_mshr_uncacheable_latency     no_value                       # average overall mshr uncacheable latency
system.l2.overall_hits                           3462                       # number of overall hits
system.l2.overall_miss_latency           218541406000                       # number of overall miss cycles
system.l2.overall_miss_rate                  0.999019                       # miss rate for overall accesses
system.l2.overall_misses                      3526778                       # number of overall misses
system.l2.overall_mshr_hits                        11                       # number of overall MSHR hits
system.l2.overall_mshr_miss_latency      161916050552                       # number of overall MSHR miss cycles
system.l2.overall_mshr_miss_rate             1.000309                       # mshr miss rate for overall accesses
system.l2.overall_mshr_misses                 3531332                       # number of overall MSHR misses
system.l2.overall_mshr_uncacheable_latency            0                       # number of overall MSHR uncacheable cycles
system.l2.overall_mshr_uncacheable_misses            0                       # number of overall MSHR uncacheable misses
system.l2.prefetch_accuracy                  0.562199                       # ratio of good prefetches to total prefetches
system.l2.prefetch_hits                          2567                       # number of prefetched blocks that were accessed
system.l2.prefetcher.num_hwpf_already_in_prefetcher     14076080                       # number of hwpf that were already in the prefetch queue
system.l2.prefetcher.num_hwpf_evicted               0                       # number of hwpf removed due to no buffer left
system.l2.prefetcher.num_hwpf_identified     17597802                       # number of hwpf identified
system.l2.prefetcher.num_hwpf_issued          3520967                       # number of hwpf issued
system.l2.prefetcher.num_hwpf_removed_MSHR_hit          753                       # number of hwpf removed because MSHR allocated
system.l2.prefetcher.num_hwpf_span_page             0                       # number of hwpf spanning a virtual page
system.l2.prefetcher.num_hwpf_squashed_from_miss            0                       # number of hwpf that got squashed due to a miss aborting calculation time
system.l2.replacements                        3523554                       # number of replacements
system.l2.sampled_refs                        3528443                       # Sample count of references to valid blocks.
system.l2.soft_prefetch_mshr_full                   0                       # number of mshr full events for SW prefetching instrutions
system.l2.tagsinuse                       4608.830041                       # Cycle average of tags in use
system.l2.total_refs                             6419                       # Total number of references to valid blocks.
system.l2.warmup_cycle                              0                       # Cycle when the warmup percentage was hit.
system.l2.writebacks                             4475                       # number of writebacks
system.switch_cpus.dtb.data_accesses          2832022                       # DTB accesses
system.switch_cpus.dtb.data_acv                     0                       # DTB access violations
system.switch_cpus.dtb.data_hits              2558233                       # DTB hits
system.switch_cpus.dtb.data_misses             273789                       # DTB misses
system.switch_cpus.dtb.fetch_accesses               0                       # ITB accesses
system.switch_cpus.dtb.fetch_acv                    0                       # ITB acv
system.switch_cpus.dtb.fetch_hits                   0                       # ITB hits
system.switch_cpus.dtb.fetch_misses                 0                       # ITB misses
system.switch_cpus.dtb.read_accesses          2682476                       # DTB read accesses
system.switch_cpus.dtb.read_acv                     0                       # DTB read access violations
system.switch_cpus.dtb.read_hits              2409028                       # DTB read hits
system.switch_cpus.dtb.read_misses             273448                       # DTB read misses
system.switch_cpus.dtb.write_accesses          149546                       # DTB write accesses
system.switch_cpus.dtb.write_acv                    0                       # DTB write access violations
system.switch_cpus.dtb.write_hits              149205                       # DTB write hits
system.switch_cpus.dtb.write_misses               341                       # DTB write misses
system.switch_cpus.idle_fraction                    1                       # Percentage of idle cycles
system.switch_cpus.itb.data_accesses                0                       # DTB accesses
system.switch_cpus.itb.data_acv                     0                       # DTB access violations
system.switch_cpus.itb.data_hits                    0                       # DTB hits
system.switch_cpus.itb.data_misses                  0                       # DTB misses
system.switch_cpus.itb.fetch_accesses        10273803                       # ITB accesses
system.switch_cpus.itb.fetch_acv                    0                       # ITB acv
system.switch_cpus.itb.fetch_hits            10273790                       # ITB hits
system.switch_cpus.itb.fetch_misses                13                       # ITB misses
system.switch_cpus.itb.read_accesses                0                       # DTB read accesses
system.switch_cpus.itb.read_acv                     0                       # DTB read access violations
system.switch_cpus.itb.read_hits                    0                       # DTB read hits
system.switch_cpus.itb.read_misses                  0                       # DTB read misses
system.switch_cpus.itb.write_accesses               0                       # DTB write accesses
system.switch_cpus.itb.write_acv                    0                       # DTB write access violations
system.switch_cpus.itb.write_hits                   0                       # DTB write hits
system.switch_cpus.itb.write_misses                 0                       # DTB write misses
system.switch_cpus.not_idle_fraction                0                       # Percentage of non-idle cycles
system.switch_cpus.numCycles                229970272                       # number of cpu cycles simulated
system.switch_cpus.num_insts                 10000001                       # Number of instructions executed
system.switch_cpus.num_refs                   2837031                       # Number of memory references
system.switch_cpus_1.BPredUnit.BTBCorrect            0                       # Number of correct BTB predictions (this stat may not work properly.
system.switch_cpus_1.BPredUnit.BTBHits        4381691                       # Number of BTB hits
system.switch_cpus_1.BPredUnit.BTBLookups      4573078                       # Number of BTB lookups
system.switch_cpus_1.BPredUnit.RASInCorrect           28                       # Number of incorrect RAS predictions.
system.switch_cpus_1.BPredUnit.condIncorrect        20653                       # Number of conditional branches incorrect
system.switch_cpus_1.BPredUnit.condPredicted      5242571                       # Number of conditional branches predicted
system.switch_cpus_1.BPredUnit.lookups        5387866                       # Number of BP lookups
system.switch_cpus_1.BPredUnit.usedRAS          54046                       # Number of times the RAS was used to get a target.
system.switch_cpus_1.commit.COM:branches      1639812                       # Number of branches committed
system.switch_cpus_1.commit.COM:bw_lim_events        50442                       # number cycles where commit BW limit reached
system.switch_cpus_1.commit.COM:bw_limited            0                       # number of insts not committed due to BW limits
system.switch_cpus_1.commit.COM:committed_per_cycle::samples     51448793                       # Number of insts commited each cycle
system.switch_cpus_1.commit.COM:committed_per_cycle::mean     0.200466                       # Number of insts commited each cycle
system.switch_cpus_1.commit.COM:committed_per_cycle::stdev     0.638782                       # Number of insts commited each cycle
system.switch_cpus_1.commit.COM:committed_per_cycle::underflows            0      0.00%      0.00% # Number of insts commited each cycle
system.switch_cpus_1.commit.COM:committed_per_cycle::0     44729982     86.94%     86.94% # Number of insts commited each cycle
system.switch_cpus_1.commit.COM:committed_per_cycle::1      4285911      8.33%     95.27% # Number of insts commited each cycle
system.switch_cpus_1.commit.COM:committed_per_cycle::2      2006877      3.90%     99.17% # Number of insts commited each cycle
system.switch_cpus_1.commit.COM:committed_per_cycle::3       137537      0.27%     99.44% # Number of insts commited each cycle
system.switch_cpus_1.commit.COM:committed_per_cycle::4        91379      0.18%     99.62% # Number of insts commited each cycle
system.switch_cpus_1.commit.COM:committed_per_cycle::5        78843      0.15%     99.77% # Number of insts commited each cycle
system.switch_cpus_1.commit.COM:committed_per_cycle::6        36549      0.07%     99.84% # Number of insts commited each cycle
system.switch_cpus_1.commit.COM:committed_per_cycle::7        31273      0.06%     99.90% # Number of insts commited each cycle
system.switch_cpus_1.commit.COM:committed_per_cycle::8        50442      0.10%    100.00% # Number of insts commited each cycle
system.switch_cpus_1.commit.COM:committed_per_cycle::overflows            0      0.00%    100.00% # Number of insts commited each cycle
system.switch_cpus_1.commit.COM:committed_per_cycle::min_value            0                       # Number of insts commited each cycle
system.switch_cpus_1.commit.COM:committed_per_cycle::max_value            8                       # Number of insts commited each cycle
system.switch_cpus_1.commit.COM:committed_per_cycle::total     51448793                       # Number of insts commited each cycle
system.switch_cpus_1.commit.COM:count        10313748                       # Number of instructions committed
system.switch_cpus_1.commit.COM:loads         2510912                       # Number of loads committed
system.switch_cpus_1.commit.COM:membars             0                       # Number of memory barriers committed
system.switch_cpus_1.commit.COM:refs          2655008                       # Number of memory references committed
system.switch_cpus_1.commit.COM:swp_count            0                       # Number of s/w prefetches committed
system.switch_cpus_1.commit.branchMispredicts        20313                       # The number of times a branch was mispredicted
system.switch_cpus_1.commit.commitCommittedInsts     10313748                       # The number of committed instructions
system.switch_cpus_1.commit.commitNonSpecStalls            1                       # The number of times commit has been forced to stall to communicate backwards
system.switch_cpus_1.commit.commitSquashedInsts     21848834                       # The number of squashed insts skipped by commit
system.switch_cpus_1.committedInsts          10000000                       # Number of Instructions Simulated
system.switch_cpus_1.committedInsts_total     10000000                       # Number of Instructions Simulated
system.switch_cpus_1.cpi                    16.463499                       # CPI: Cycles Per Instruction
system.switch_cpus_1.cpi_total              16.463499                       # CPI: Total CPI of All Threads
system.switch_cpus_1.decode.DECODE:BlockedCycles     36634022                       # Number of cycles decode is blocked
system.switch_cpus_1.decode.DECODE:BranchMispred          346                       # Number of times decode detected a branch misprediction
system.switch_cpus_1.decode.DECODE:BranchResolved        88869                       # Number of times decode resolved a branch
system.switch_cpus_1.decode.DECODE:DecodedInsts     33966401                       # Number of instructions handled by decode
system.switch_cpus_1.decode.DECODE:IdleCycles      7686095                       # Number of cycles decode is idle
system.switch_cpus_1.decode.DECODE:RunCycles      6437086                       # Number of cycles decode is running
system.switch_cpus_1.decode.DECODE:SquashCycles      2936766                       # Number of cycles decode is squashing
system.switch_cpus_1.decode.DECODE:SquashedInsts         1411                       # Number of squashed instructions handled by decode
system.switch_cpus_1.decode.DECODE:UnblockCycles       691589                       # Number of cycles decode is unblocking
system.switch_cpus_1.dtb.data_accesses        3998145                       # DTB accesses
system.switch_cpus_1.dtb.data_acv                   0                       # DTB access violations
system.switch_cpus_1.dtb.data_hits            3406825                       # DTB hits
system.switch_cpus_1.dtb.data_misses           591320                       # DTB misses
system.switch_cpus_1.dtb.fetch_accesses             0                       # ITB accesses
system.switch_cpus_1.dtb.fetch_acv                  0                       # ITB acv
system.switch_cpus_1.dtb.fetch_hits                 0                       # ITB hits
system.switch_cpus_1.dtb.fetch_misses               0                       # ITB misses
system.switch_cpus_1.dtb.read_accesses        3829550                       # DTB read accesses
system.switch_cpus_1.dtb.read_acv                   0                       # DTB read access violations
system.switch_cpus_1.dtb.read_hits            3238879                       # DTB read hits
system.switch_cpus_1.dtb.read_misses           590671                       # DTB read misses
system.switch_cpus_1.dtb.write_accesses        168595                       # DTB write accesses
system.switch_cpus_1.dtb.write_acv                  0                       # DTB write access violations
system.switch_cpus_1.dtb.write_hits            167946                       # DTB write hits
system.switch_cpus_1.dtb.write_misses             649                       # DTB write misses
system.switch_cpus_1.fetch.Branches           5387866                       # Number of branches that fetch encountered
system.switch_cpus_1.fetch.CacheLines         3228715                       # Number of cache lines fetched
system.switch_cpus_1.fetch.Cycles            10649997                       # Number of cycles fetch has run and was not squashing or blocked
system.switch_cpus_1.fetch.IcacheSquashes         4378                       # Number of outstanding Icache misses that were squashed
system.switch_cpus_1.fetch.Insts             35335351                       # Number of instructions fetch has processed
system.switch_cpus_1.fetch.SquashCycles        315287                       # Number of cycles fetch has spent squashing
system.switch_cpus_1.fetch.branchRate        0.032726                       # Number of branch fetches per cycle
system.switch_cpus_1.fetch.icacheStallCycles      3228715                       # Number of cycles fetch is stalled on an Icache miss
system.switch_cpus_1.fetch.predictedBranches      4435737                       # Number of branches that fetch has predicted taken
system.switch_cpus_1.fetch.rate              0.214628                       # Number of inst fetches per cycle
system.switch_cpus_1.fetch.rateDist::samples     54385559                       # Number of instructions fetched each cycle (Total)
system.switch_cpus_1.fetch.rateDist::mean     0.649719                       # Number of instructions fetched each cycle (Total)
system.switch_cpus_1.fetch.rateDist::stdev     1.838649                       # Number of instructions fetched each cycle (Total)
system.switch_cpus_1.fetch.rateDist::underflows            0      0.00%      0.00% # Number of instructions fetched each cycle (Total)
system.switch_cpus_1.fetch.rateDist::0       46964339     86.35%     86.35% # Number of instructions fetched each cycle (Total)
system.switch_cpus_1.fetch.rateDist::1         936399      1.72%     88.08% # Number of instructions fetched each cycle (Total)
system.switch_cpus_1.fetch.rateDist::2          74990      0.14%     88.21% # Number of instructions fetched each cycle (Total)
system.switch_cpus_1.fetch.rateDist::3          62922      0.12%     88.33% # Number of instructions fetched each cycle (Total)
system.switch_cpus_1.fetch.rateDist::4        4085848      7.51%     95.84% # Number of instructions fetched each cycle (Total)
system.switch_cpus_1.fetch.rateDist::5          56923      0.10%     95.95% # Number of instructions fetched each cycle (Total)
system.switch_cpus_1.fetch.rateDist::6          82464      0.15%     96.10% # Number of instructions fetched each cycle (Total)
system.switch_cpus_1.fetch.rateDist::7          35977      0.07%     96.16% # Number of instructions fetched each cycle (Total)
system.switch_cpus_1.fetch.rateDist::8        2085697      3.84%    100.00% # Number of instructions fetched each cycle (Total)
system.switch_cpus_1.fetch.rateDist::overflows            0      0.00%    100.00% # Number of instructions fetched each cycle (Total)
system.switch_cpus_1.fetch.rateDist::min_value            0                       # Number of instructions fetched each cycle (Total)
system.switch_cpus_1.fetch.rateDist::max_value            8                       # Number of instructions fetched each cycle (Total)
system.switch_cpus_1.fetch.rateDist::total     54385559                       # Number of instructions fetched each cycle (Total)
system.switch_cpus_1.idleCycles             110249434                       # Total number of cycles that the CPU has spent unscheduled due to idling
system.switch_cpus_1.iew.EXEC:branches        2328857                       # Number of branches executed
system.switch_cpus_1.iew.EXEC:nop              364501                       # number of nop insts executed
system.switch_cpus_1.iew.EXEC:rate           0.086726                       # Inst execution rate
system.switch_cpus_1.iew.EXEC:refs            4004576                       # number of memory reference insts executed
system.switch_cpus_1.iew.EXEC:stores           168595                       # Number of stores executed
system.switch_cpus_1.iew.EXEC:swp                   0                       # number of swp insts executed
system.switch_cpus_1.iew.WB:consumers        12095726                       # num instructions consuming a value
system.switch_cpus_1.iew.WB:count            13664824                       # cumulative count of insts written-back
system.switch_cpus_1.iew.WB:fanout           0.655288                       # average fanout of values written-back
system.switch_cpus_1.iew.WB:penalized               0                       # number of instrctions required to write to 'other' IQ
system.switch_cpus_1.iew.WB:penalized_rate            0                       # fraction of instructions written-back that wrote to 'other' IQ
system.switch_cpus_1.iew.WB:producers         7926186                       # num instructions producing a value
system.switch_cpus_1.iew.WB:rate             0.083001                       # insts written-back per cycle
system.switch_cpus_1.iew.WB:sent             14256896                       # cumulative count of insts sent to commit
system.switch_cpus_1.iew.branchMispredicts        23215                       # Number of branch mispredicts detected at execute
system.switch_cpus_1.iew.iewBlockCycles      25958134                       # Number of cycles IEW is blocking
system.switch_cpus_1.iew.iewDispLoadInsts      8759939                       # Number of dispatched load instructions
system.switch_cpus_1.iew.iewDispNonSpecInsts            1                       # Number of dispatched non-speculative instructions
system.switch_cpus_1.iew.iewDispSquashedInsts        21508                       # Number of squashed instructions skipped by dispatch
system.switch_cpus_1.iew.iewDispStoreInsts       186342                       # Number of dispatched store instructions
system.switch_cpus_1.iew.iewDispatchedInsts     32634597                       # Number of instructions dispatched to IQ
system.switch_cpus_1.iew.iewExecLoadInsts      3835981                       # Number of load instructions executed
system.switch_cpus_1.iew.iewExecSquashedInsts        18773                       # Number of squashed instructions skipped in execute
system.switch_cpus_1.iew.iewExecutedInsts     14278054                       # Number of executed instructions
system.switch_cpus_1.iew.iewIQFullEvents       477534                       # Number of times the IQ has become full, causing a stall
system.switch_cpus_1.iew.iewIdleCycles              0                       # Number of cycles IEW is idle
system.switch_cpus_1.iew.iewLSQFullEvents          911                       # Number of times the LSQ has become full, causing a stall
system.switch_cpus_1.iew.iewSquashCycles      2936766                       # Number of cycles IEW is squashing
system.switch_cpus_1.iew.iewUnblockCycles      1166351                       # Number of cycles IEW is unblocking
system.switch_cpus_1.iew.lsq.thread.0.blockedLoads            0                       # Number of blocked loads due to partial load-store forwarding
system.switch_cpus_1.iew.lsq.thread.0.cacheBlocked         5086                       # Number of times an access to memory failed due to the cache being blocked
system.switch_cpus_1.iew.lsq.thread.0.forwLoads        33234                       # Number of loads that had data forwarded from stores
system.switch_cpus_1.iew.lsq.thread.0.ignoredResponses          254                       # Number of memory responses ignored because the instruction is squashed
system.switch_cpus_1.iew.lsq.thread.0.invAddrLoads            0                       # Number of loads ignored due to an invalid address
system.switch_cpus_1.iew.lsq.thread.0.invAddrSwpfs            0                       # Number of software prefetches ignored due to an invalid address
system.switch_cpus_1.iew.lsq.thread.0.memOrderViolation          587                       # Number of memory ordering violations
system.switch_cpus_1.iew.lsq.thread.0.rescheduledLoads            0                       # Number of loads that were rescheduled
system.switch_cpus_1.iew.lsq.thread.0.squashedLoads      6249006                       # Number of loads squashed
system.switch_cpus_1.iew.lsq.thread.0.squashedStores        42246                       # Number of stores squashed
system.switch_cpus_1.iew.memOrderViolationEvents          587                       # Number of memory order violations
system.switch_cpus_1.iew.predictedNotTakenIncorrect         7093                       # Number of branches that were predicted not taken incorrectly
system.switch_cpus_1.iew.predictedTakenIncorrect        16122                       # Number of branches that were predicted taken incorrectly
system.switch_cpus_1.ipc                     0.060740                       # IPC: Instructions Per Cycle
system.switch_cpus_1.ipc_total               0.060740                       # IPC: Total IPC of All Threads
system.switch_cpus_1.iq.ISSUE:FU_type_0::No_OpClass            0      0.00%      0.00% # Type of FU issued
system.switch_cpus_1.iq.ISSUE:FU_type_0::IntAlu     10279503     71.90%     71.90% # Type of FU issued
system.switch_cpus_1.iq.ISSUE:FU_type_0::IntMult         1084      0.01%     71.91% # Type of FU issued
system.switch_cpus_1.iq.ISSUE:FU_type_0::IntDiv            0      0.00%     71.91% # Type of FU issued
system.switch_cpus_1.iq.ISSUE:FU_type_0::FloatAdd         4206      0.03%     71.94% # Type of FU issued
system.switch_cpus_1.iq.ISSUE:FU_type_0::FloatCmp            0      0.00%     71.94% # Type of FU issued
system.switch_cpus_1.iq.ISSUE:FU_type_0::FloatCvt         1100      0.01%     71.95% # Type of FU issued
system.switch_cpus_1.iq.ISSUE:FU_type_0::FloatMult          220      0.00%     71.95% # Type of FU issued
system.switch_cpus_1.iq.ISSUE:FU_type_0::FloatDiv            0      0.00%     71.95% # Type of FU issued
system.switch_cpus_1.iq.ISSUE:FU_type_0::FloatSqrt            0      0.00%     71.95% # Type of FU issued
system.switch_cpus_1.iq.ISSUE:FU_type_0::MemRead      3840474     26.86%     98.81% # Type of FU issued
system.switch_cpus_1.iq.ISSUE:FU_type_0::MemWrite       170240      1.19%    100.00% # Type of FU issued
system.switch_cpus_1.iq.ISSUE:FU_type_0::IprAccess            0      0.00%    100.00% # Type of FU issued
system.switch_cpus_1.iq.ISSUE:FU_type_0::InstPrefetch            0      0.00%    100.00% # Type of FU issued
system.switch_cpus_1.iq.ISSUE:FU_type_0::total     14296827                       # Type of FU issued
system.switch_cpus_1.iq.ISSUE:fu_busy_cnt         9005                       # FU busy when requested
system.switch_cpus_1.iq.ISSUE:fu_busy_rate     0.000630                       # FU busy rate (busy events/executed inst)
system.switch_cpus_1.iq.ISSUE:fu_full::No_OpClass            0      0.00%      0.00% # attempts to use FU when none available
system.switch_cpus_1.iq.ISSUE:fu_full::IntAlu           54      0.60%      0.60% # attempts to use FU when none available
system.switch_cpus_1.iq.ISSUE:fu_full::IntMult            0      0.00%      0.60% # attempts to use FU when none available
system.switch_cpus_1.iq.ISSUE:fu_full::IntDiv            0      0.00%      0.60% # attempts to use FU when none available
system.switch_cpus_1.iq.ISSUE:fu_full::FloatAdd            0      0.00%      0.60% # attempts to use FU when none available
system.switch_cpus_1.iq.ISSUE:fu_full::FloatCmp            0      0.00%      0.60% # attempts to use FU when none available
system.switch_cpus_1.iq.ISSUE:fu_full::FloatCvt            0      0.00%      0.60% # attempts to use FU when none available
system.switch_cpus_1.iq.ISSUE:fu_full::FloatMult            0      0.00%      0.60% # attempts to use FU when none available
system.switch_cpus_1.iq.ISSUE:fu_full::FloatDiv            0      0.00%      0.60% # attempts to use FU when none available
system.switch_cpus_1.iq.ISSUE:fu_full::FloatSqrt            0      0.00%      0.60% # attempts to use FU when none available
system.switch_cpus_1.iq.ISSUE:fu_full::MemRead         5073     56.34%     56.94% # attempts to use FU when none available
system.switch_cpus_1.iq.ISSUE:fu_full::MemWrite         3878     43.06%    100.00% # attempts to use FU when none available
system.switch_cpus_1.iq.ISSUE:fu_full::IprAccess            0      0.00%    100.00% # attempts to use FU when none available
system.switch_cpus_1.iq.ISSUE:fu_full::InstPrefetch            0      0.00%    100.00% # attempts to use FU when none available
system.switch_cpus_1.iq.ISSUE:issued_per_cycle::samples     54385559                       # Number of insts issued each cycle
system.switch_cpus_1.iq.ISSUE:issued_per_cycle::mean     0.262879                       # Number of insts issued each cycle
system.switch_cpus_1.iq.ISSUE:issued_per_cycle::stdev     0.653491                       # Number of insts issued each cycle
system.switch_cpus_1.iq.ISSUE:issued_per_cycle::underflows            0      0.00%      0.00% # Number of insts issued each cycle
system.switch_cpus_1.iq.ISSUE:issued_per_cycle::0     44263114     81.39%     81.39% # Number of insts issued each cycle
system.switch_cpus_1.iq.ISSUE:issued_per_cycle::1      7557719     13.90%     95.28% # Number of insts issued each cycle
system.switch_cpus_1.iq.ISSUE:issued_per_cycle::2      1367506      2.51%     97.80% # Number of insts issued each cycle
system.switch_cpus_1.iq.ISSUE:issued_per_cycle::3       906682      1.67%     99.47% # Number of insts issued each cycle
system.switch_cpus_1.iq.ISSUE:issued_per_cycle::4       188726      0.35%     99.81% # Number of insts issued each cycle
system.switch_cpus_1.iq.ISSUE:issued_per_cycle::5        86483      0.16%     99.97% # Number of insts issued each cycle
system.switch_cpus_1.iq.ISSUE:issued_per_cycle::6        10789      0.02%     99.99% # Number of insts issued each cycle
system.switch_cpus_1.iq.ISSUE:issued_per_cycle::7         4323      0.01%    100.00% # Number of insts issued each cycle
system.switch_cpus_1.iq.ISSUE:issued_per_cycle::8          217      0.00%    100.00% # Number of insts issued each cycle
system.switch_cpus_1.iq.ISSUE:issued_per_cycle::overflows            0      0.00%    100.00% # Number of insts issued each cycle
system.switch_cpus_1.iq.ISSUE:issued_per_cycle::min_value            0                       # Number of insts issued each cycle
system.switch_cpus_1.iq.ISSUE:issued_per_cycle::max_value            8                       # Number of insts issued each cycle
system.switch_cpus_1.iq.ISSUE:issued_per_cycle::total     54385559                       # Number of insts issued each cycle
system.switch_cpus_1.iq.ISSUE:rate           0.086840                       # Inst issue rate
system.switch_cpus_1.iq.iqInstsAdded         32270095                       # Number of instructions added to the IQ (excludes non-spec)
system.switch_cpus_1.iq.iqInstsIssued        14296827                       # Number of instructions issued
system.switch_cpus_1.iq.iqNonSpecInstsAdded            1                       # Number of non-speculative instructions added to the IQ
system.switch_cpus_1.iq.iqSquashedInstsExamined     22250426                       # Number of squashed instructions iterated over during squash; mainly for profiling
system.switch_cpus_1.iq.iqSquashedInstsIssued          525                       # Number of squashed instructions issued
system.switch_cpus_1.iq.iqSquashedOperandsExamined     31597204                       # Number of squashed operands that are examined and possibly removed from graph
system.switch_cpus_1.itb.data_accesses              0                       # DTB accesses
system.switch_cpus_1.itb.data_acv                   0                       # DTB access violations
system.switch_cpus_1.itb.data_hits                  0                       # DTB hits
system.switch_cpus_1.itb.data_misses                0                       # DTB misses
system.switch_cpus_1.itb.fetch_accesses       3228777                       # ITB accesses
system.switch_cpus_1.itb.fetch_acv                  0                       # ITB acv
system.switch_cpus_1.itb.fetch_hits           3228715                       # ITB hits
system.switch_cpus_1.itb.fetch_misses              62                       # ITB misses
system.switch_cpus_1.itb.read_accesses              0                       # DTB read accesses
system.switch_cpus_1.itb.read_acv                   0                       # DTB read access violations
system.switch_cpus_1.itb.read_hits                  0                       # DTB read hits
system.switch_cpus_1.itb.read_misses                0                       # DTB read misses
system.switch_cpus_1.itb.write_accesses             0                       # DTB write accesses
system.switch_cpus_1.itb.write_acv                  0                       # DTB write access violations
system.switch_cpus_1.itb.write_hits                 0                       # DTB write hits
system.switch_cpus_1.itb.write_misses               0                       # DTB write misses
system.switch_cpus_1.memDep0.conflictingLoads        68318                       # Number of conflicting loads.
system.switch_cpus_1.memDep0.conflictingStores         2783                       # Number of conflicting stores.
system.switch_cpus_1.memDep0.insertedLoads      8759939                       # Number of loads inserted to the mem dependence unit.
system.switch_cpus_1.memDep0.insertedStores       186342                       # Number of stores inserted to the mem dependence unit.
system.switch_cpus_1.numCycles              164634993                       # number of cpu cycles simulated
system.switch_cpus_1.rename.RENAME:BlockCycles     32783585                       # Number of cycles rename is blocking
system.switch_cpus_1.rename.RENAME:CommittedMaps      8255878                       # Number of HB maps that are committed
system.switch_cpus_1.rename.RENAME:IQFullEvents      4059793                       # Number of times rename has blocked due to IQ full
system.switch_cpus_1.rename.RENAME:IdleCycles      8246332                       # Number of cycles rename is idle
system.switch_cpus_1.rename.RENAME:LSQFullEvents        25832                       # Number of times rename has blocked due to LSQ full
system.switch_cpus_1.rename.RENAME:ROBFullEvents          939                       # Number of times rename has blocked due to ROB full
system.switch_cpus_1.rename.RENAME:RenameLookups     53317572                       # Number of register rename lookups that rename has made
system.switch_cpus_1.rename.RENAME:RenamedInsts     33093529                       # Number of instructions processed by rename
system.switch_cpus_1.rename.RENAME:RenamedOperands     27541400                       # Number of destination operands rename has renamed
system.switch_cpus_1.rename.RENAME:RunCycles      6575192                       # Number of cycles rename is running
system.switch_cpus_1.rename.RENAME:SquashCycles      2936766                       # Number of cycles rename is squashing
system.switch_cpus_1.rename.RENAME:UnblockCycles      3843672                       # Number of cycles rename is unblocking
system.switch_cpus_1.rename.RENAME:UndoneMaps     19285455                       # Number of HB maps that are undone due to squashing
system.switch_cpus_1.rename.RENAME:serializeStallCycles           11                       # count of cycles rename stalled for serializing inst
system.switch_cpus_1.rename.RENAME:serializingInsts            1                       # count of serializing insts renamed
system.switch_cpus_1.rename.RENAME:skidInsts      7684126                       # count of insts added to the skid buffer
system.switch_cpus_1.rename.RENAME:tempSerializingInsts            1                       # count of temporary serializing insts renamed
system.switch_cpus_1.timesIdled               1811925                       # Number of times that the entire CPU went into an idle state and unscheduled itself

---------- End Simulation Statistics   ----------
