
---------- Begin Simulation Statistics ----------
host_inst_rate                                 248437                       # Simulator instruction rate (inst/s)
host_mem_usage                                 397164                       # Number of bytes of host memory used
host_seconds                                    80.50                       # Real time elapsed on the host
host_tick_rate                              247231076                       # Simulator tick rate (ticks/s)
sim_freq                                 1000000000000                       # Frequency of simulated ticks
sim_insts                                    20000004                       # Number of instructions simulated
sim_seconds                                  0.019903                       # Number of seconds simulated
sim_ticks                                 19902982500                       # Number of ticks simulated
system.cpu.dcache.ReadReq_accesses            2901214                       # number of ReadReq accesses(hits+misses)
system.cpu.dcache.ReadReq_avg_miss_latency 30664.531678                       # average ReadReq miss latency
system.cpu.dcache.ReadReq_avg_mshr_miss_latency 19282.715695                       # average ReadReq mshr miss latency
system.cpu.dcache.ReadReq_hits                2755780                       # number of ReadReq hits
system.cpu.dcache.ReadReq_miss_latency     4459665500                       # number of ReadReq miss cycles
system.cpu.dcache.ReadReq_miss_rate          0.050129                       # miss rate for ReadReq accesses
system.cpu.dcache.ReadReq_misses               145434                       # number of ReadReq misses
system.cpu.dcache.ReadReq_mshr_hits             93219                       # number of ReadReq MSHR hits
system.cpu.dcache.ReadReq_mshr_miss_latency   1006847000                       # number of ReadReq MSHR miss cycles
system.cpu.dcache.ReadReq_mshr_miss_rate     0.017998                       # mshr miss rate for ReadReq accesses
system.cpu.dcache.ReadReq_mshr_misses           52215                       # number of ReadReq MSHR misses
system.cpu.dcache.WriteReq_accesses           1252170                       # number of WriteReq accesses(hits+misses)
system.cpu.dcache.WriteReq_avg_miss_latency 47225.403586                       # average WriteReq miss latency
system.cpu.dcache.WriteReq_avg_mshr_miss_latency 43831.012011                       # average WriteReq mshr miss latency
system.cpu.dcache.WriteReq_hits               1068566                       # number of WriteReq hits
system.cpu.dcache.WriteReq_miss_latency    8670773000                       # number of WriteReq miss cycles
system.cpu.dcache.WriteReq_miss_rate         0.146629                       # miss rate for WriteReq accesses
system.cpu.dcache.WriteReq_misses              183604                       # number of WriteReq misses
system.cpu.dcache.WriteReq_mshr_hits           105344                       # number of WriteReq MSHR hits
system.cpu.dcache.WriteReq_mshr_miss_latency   3430215000                       # number of WriteReq MSHR miss cycles
system.cpu.dcache.WriteReq_mshr_miss_rate     0.062500                       # mshr miss rate for WriteReq accesses
system.cpu.dcache.WriteReq_mshr_misses          78260                       # number of WriteReq MSHR misses
system.cpu.dcache.avg_blocked_cycles::no_mshrs     no_value                       # average number of cycles each access was blocked
system.cpu.dcache.avg_blocked_cycles::no_targets 46028.924212                       # average number of cycles each access was blocked
system.cpu.dcache.avg_refs                  50.852045                       # Average number of references to valid blocks.
system.cpu.dcache.blocked::no_mshrs                 0                       # number of cycles access was blocked
system.cpu.dcache.blocked::no_targets           35230                       # number of cycles access was blocked
system.cpu.dcache.blocked_cycles::no_mshrs            0                       # number of cycles access was blocked
system.cpu.dcache.blocked_cycles::no_targets   1621599000                       # number of cycles access was blocked
system.cpu.dcache.cache_copies                      0                       # number of cache copies performed
system.cpu.dcache.demand_accesses             4153384                       # number of demand (read+write) accesses
system.cpu.dcache.demand_avg_miss_latency 39905.538266                       # average overall miss latency
system.cpu.dcache.demand_avg_mshr_miss_latency 34006.989845                       # average overall mshr miss latency
system.cpu.dcache.demand_hits                 3824346                       # number of demand (read+write) hits
system.cpu.dcache.demand_miss_latency     13130438500                       # number of demand (read+write) miss cycles
system.cpu.dcache.demand_miss_rate           0.079222                       # miss rate for demand accesses
system.cpu.dcache.demand_misses                329038                       # number of demand (read+write) misses
system.cpu.dcache.demand_mshr_hits             198563                       # number of demand (read+write) MSHR hits
system.cpu.dcache.demand_mshr_miss_latency   4437062000                       # number of demand (read+write) MSHR miss cycles
system.cpu.dcache.demand_mshr_miss_rate      0.031414                       # mshr miss rate for demand accesses
system.cpu.dcache.demand_mshr_misses           130475                       # number of demand (read+write) MSHR misses
system.cpu.dcache.fast_writes                       0                       # number of fast writes performed
system.cpu.dcache.mshr_cap_events                   0                       # number of times MSHR cap was activated
system.cpu.dcache.no_allocate_misses                0                       # Number of misses that were no-allocate
system.cpu.dcache.occ_%::0                   0.990434                       # Average percentage of cache occupancy
system.cpu.dcache.occ_blocks::0           1014.204629                       # Average occupied blocks per context
system.cpu.dcache.overall_accesses            4153384                       # number of overall (read+write) accesses
system.cpu.dcache.overall_avg_miss_latency 39905.538266                       # average overall miss latency
system.cpu.dcache.overall_avg_mshr_miss_latency 34006.989845                       # average overall mshr miss latency
system.cpu.dcache.overall_avg_mshr_uncacheable_latency     no_value                       # average overall mshr uncacheable latency
system.cpu.dcache.overall_hits                3824346                       # number of overall hits
system.cpu.dcache.overall_miss_latency    13130438500                       # number of overall miss cycles
system.cpu.dcache.overall_miss_rate          0.079222                       # miss rate for overall accesses
system.cpu.dcache.overall_misses               329038                       # number of overall misses
system.cpu.dcache.overall_mshr_hits            198563                       # number of overall MSHR hits
system.cpu.dcache.overall_mshr_miss_latency   4437062000                       # number of overall MSHR miss cycles
system.cpu.dcache.overall_mshr_miss_rate     0.031414                       # mshr miss rate for overall accesses
system.cpu.dcache.overall_mshr_misses          130475                       # number of overall MSHR misses
system.cpu.dcache.overall_mshr_uncacheable_latency            0                       # number of overall MSHR uncacheable cycles
system.cpu.dcache.overall_mshr_uncacheable_misses            0                       # number of overall MSHR uncacheable misses
system.cpu.dcache.prefetch_accuracy          no_value                       # ratio of good prefetches to total prefetches
system.cpu.dcache.prefetch_hits                     0                       # number of prefetched blocks that were accessed
system.cpu.dcache.replacements                  77277                       # number of replacements
system.cpu.dcache.sampled_refs                  78301                       # Sample count of references to valid blocks.
system.cpu.dcache.soft_prefetch_mshr_full            0                       # number of mshr full events for SW prefetching instrutions
system.cpu.dcache.tagsinuse               1014.204629                       # Cycle average of tags in use
system.cpu.dcache.total_refs                  3981766                       # Total number of references to valid blocks.
system.cpu.dcache.warmup_cycle           500388074000                       # Cycle when the warmup percentage was hit.
system.cpu.dcache.writebacks                    77243                       # number of writebacks
system.cpu.dtb.data_accesses                        0                       # DTB accesses
system.cpu.dtb.data_acv                             0                       # DTB access violations
system.cpu.dtb.data_hits                            0                       # DTB hits
system.cpu.dtb.data_misses                          0                       # DTB misses
system.cpu.dtb.fetch_accesses                       0                       # ITB accesses
system.cpu.dtb.fetch_acv                            0                       # ITB acv
system.cpu.dtb.fetch_hits                           0                       # ITB hits
system.cpu.dtb.fetch_misses                         0                       # ITB misses
system.cpu.dtb.read_accesses                        0                       # DTB read accesses
system.cpu.dtb.read_acv                             0                       # DTB read access violations
system.cpu.dtb.read_hits                            0                       # DTB read hits
system.cpu.dtb.read_misses                          0                       # DTB read misses
system.cpu.dtb.write_accesses                       0                       # DTB write accesses
system.cpu.dtb.write_acv                            0                       # DTB write access violations
system.cpu.dtb.write_hits                           0                       # DTB write hits
system.cpu.dtb.write_misses                         0                       # DTB write misses
system.cpu.icache.ReadReq_accesses           12640467                       # number of ReadReq accesses(hits+misses)
system.cpu.icache.ReadReq_avg_miss_latency        62700                       # average ReadReq miss latency
system.cpu.icache.ReadReq_avg_mshr_miss_latency 60866.666667                       # average ReadReq mshr miss latency
system.cpu.icache.ReadReq_hits               12640417                       # number of ReadReq hits
system.cpu.icache.ReadReq_miss_latency        3135000                       # number of ReadReq miss cycles
system.cpu.icache.ReadReq_miss_rate          0.000004                       # miss rate for ReadReq accesses
system.cpu.icache.ReadReq_misses                   50                       # number of ReadReq misses
system.cpu.icache.ReadReq_mshr_hits                 4                       # number of ReadReq MSHR hits
system.cpu.icache.ReadReq_mshr_miss_latency      2739000                       # number of ReadReq MSHR miss cycles
system.cpu.icache.ReadReq_mshr_miss_rate     0.000004                       # mshr miss rate for ReadReq accesses
system.cpu.icache.ReadReq_mshr_misses              45                       # number of ReadReq MSHR misses
system.cpu.icache.avg_blocked_cycles::no_mshrs     no_value                       # average number of cycles each access was blocked
system.cpu.icache.avg_blocked_cycles::no_targets     no_value                       # average number of cycles each access was blocked
system.cpu.icache.avg_refs               274791.673913                       # Average number of references to valid blocks.
system.cpu.icache.blocked::no_mshrs                 0                       # number of cycles access was blocked
system.cpu.icache.blocked::no_targets               0                       # number of cycles access was blocked
system.cpu.icache.blocked_cycles::no_mshrs            0                       # number of cycles access was blocked
system.cpu.icache.blocked_cycles::no_targets            0                       # number of cycles access was blocked
system.cpu.icache.cache_copies                      0                       # number of cache copies performed
system.cpu.icache.demand_accesses            12640467                       # number of demand (read+write) accesses
system.cpu.icache.demand_avg_miss_latency        62700                       # average overall miss latency
system.cpu.icache.demand_avg_mshr_miss_latency 60866.666667                       # average overall mshr miss latency
system.cpu.icache.demand_hits                12640417                       # number of demand (read+write) hits
system.cpu.icache.demand_miss_latency         3135000                       # number of demand (read+write) miss cycles
system.cpu.icache.demand_miss_rate           0.000004                       # miss rate for demand accesses
system.cpu.icache.demand_misses                    50                       # number of demand (read+write) misses
system.cpu.icache.demand_mshr_hits                  4                       # number of demand (read+write) MSHR hits
system.cpu.icache.demand_mshr_miss_latency      2739000                       # number of demand (read+write) MSHR miss cycles
system.cpu.icache.demand_mshr_miss_rate      0.000004                       # mshr miss rate for demand accesses
system.cpu.icache.demand_mshr_misses               45                       # number of demand (read+write) MSHR misses
system.cpu.icache.fast_writes                       0                       # number of fast writes performed
system.cpu.icache.mshr_cap_events                   0                       # number of times MSHR cap was activated
system.cpu.icache.no_allocate_misses                0                       # Number of misses that were no-allocate
system.cpu.icache.occ_%::0                   0.078877                       # Average percentage of cache occupancy
system.cpu.icache.occ_blocks::0             40.384865                       # Average occupied blocks per context
system.cpu.icache.overall_accesses           12640467                       # number of overall (read+write) accesses
system.cpu.icache.overall_avg_miss_latency        62700                       # average overall miss latency
system.cpu.icache.overall_avg_mshr_miss_latency 60866.666667                       # average overall mshr miss latency
system.cpu.icache.overall_avg_mshr_uncacheable_latency     no_value                       # average overall mshr uncacheable latency
system.cpu.icache.overall_hits               12640417                       # number of overall hits
system.cpu.icache.overall_miss_latency        3135000                       # number of overall miss cycles
system.cpu.icache.overall_miss_rate          0.000004                       # miss rate for overall accesses
system.cpu.icache.overall_misses                   50                       # number of overall misses
system.cpu.icache.overall_mshr_hits                 4                       # number of overall MSHR hits
system.cpu.icache.overall_mshr_miss_latency      2739000                       # number of overall MSHR miss cycles
system.cpu.icache.overall_mshr_miss_rate     0.000004                       # mshr miss rate for overall accesses
system.cpu.icache.overall_mshr_misses              45                       # number of overall MSHR misses
system.cpu.icache.overall_mshr_uncacheable_latency            0                       # number of overall MSHR uncacheable cycles
system.cpu.icache.overall_mshr_uncacheable_misses            0                       # number of overall MSHR uncacheable misses
system.cpu.icache.prefetch_accuracy          no_value                       # ratio of good prefetches to total prefetches
system.cpu.icache.prefetch_hits                     0                       # number of prefetched blocks that were accessed
system.cpu.icache.replacements                      0                       # number of replacements
system.cpu.icache.sampled_refs                     46                       # Sample count of references to valid blocks.
system.cpu.icache.soft_prefetch_mshr_full            0                       # number of mshr full events for SW prefetching instrutions
system.cpu.icache.tagsinuse                 40.384865                       # Cycle average of tags in use
system.cpu.icache.total_refs                 12640417                       # Total number of references to valid blocks.
system.cpu.icache.warmup_cycle                      0                       # Cycle when the warmup percentage was hit.
system.cpu.icache.writebacks                        0                       # number of writebacks
system.cpu.idle_fraction                            0                       # Percentage of idle cycles
system.cpu.itb.data_accesses                        0                       # DTB accesses
system.cpu.itb.data_acv                             0                       # DTB access violations
system.cpu.itb.data_hits                            0                       # DTB hits
system.cpu.itb.data_misses                          0                       # DTB misses
system.cpu.itb.fetch_accesses                       2                       # ITB accesses
system.cpu.itb.fetch_acv                            0                       # ITB acv
system.cpu.itb.fetch_hits                           2                       # ITB hits
system.cpu.itb.fetch_misses                         0                       # ITB misses
system.cpu.itb.read_accesses                        0                       # DTB read accesses
system.cpu.itb.read_acv                             0                       # DTB read access violations
system.cpu.itb.read_hits                            0                       # DTB read hits
system.cpu.itb.read_misses                          0                       # DTB read misses
system.cpu.itb.write_accesses                       0                       # DTB write accesses
system.cpu.itb.write_acv                            0                       # DTB write access violations
system.cpu.itb.write_hits                           0                       # DTB write hits
system.cpu.itb.write_misses                         0                       # DTB write misses
system.cpu.not_idle_fraction                        1                       # Percentage of non-idle cycles
system.cpu.numCycles                                2                       # number of cpu cycles simulated
system.cpu.num_insts                                2                       # Number of instructions executed
system.cpu.num_refs                                 0                       # Number of memory references
system.cpu.workload.PROG:num_syscalls               0                       # Number of system calls
system.l2.HardPFReq_avg_mshr_miss_latency 34526.555369                       # average HardPFReq mshr miss latency
system.l2.HardPFReq_mshr_miss_latency      2403876891                       # number of HardPFReq MSHR miss cycles
system.l2.HardPFReq_mshr_miss_rate                inf                       # mshr miss rate for HardPFReq accesses
system.l2.HardPFReq_mshr_misses                 69624                       # number of HardPFReq MSHR misses
system.l2.ReadExReq_accesses                    26087                       # number of ReadExReq accesses(hits+misses)
system.l2.ReadExReq_avg_miss_latency     55909.090909                       # average ReadExReq miss latency
system.l2.ReadExReq_avg_mshr_miss_latency        40000                       # average ReadExReq mshr miss latency
system.l2.ReadExReq_hits                        26076                       # number of ReadExReq hits
system.l2.ReadExReq_miss_latency               615000                       # number of ReadExReq miss cycles
system.l2.ReadExReq_miss_rate                0.000422                       # miss rate for ReadExReq accesses
system.l2.ReadExReq_misses                         11                       # number of ReadExReq misses
system.l2.ReadExReq_mshr_miss_latency          440000                       # number of ReadExReq MSHR miss cycles
system.l2.ReadExReq_mshr_miss_rate           0.000422                       # mshr miss rate for ReadExReq accesses
system.l2.ReadExReq_mshr_misses                    11                       # number of ReadExReq MSHR misses
system.l2.ReadReq_accesses                      52260                       # number of ReadReq accesses(hits+misses)
system.l2.ReadReq_avg_miss_latency       59808.260770                       # average ReadReq miss latency
system.l2.ReadReq_avg_mshr_miss_latency  44181.276498                       # average ReadReq mshr miss latency
system.l2.ReadReq_hits                          43532                       # number of ReadReq hits
system.l2.ReadReq_miss_latency              522006500                       # number of ReadReq miss cycles
system.l2.ReadReq_miss_rate                  0.167011                       # miss rate for ReadReq accesses
system.l2.ReadReq_misses                         8728                       # number of ReadReq misses
system.l2.ReadReq_mshr_miss_latency         385570000                       # number of ReadReq MSHR miss cycles
system.l2.ReadReq_mshr_miss_rate             0.166992                       # mshr miss rate for ReadReq accesses
system.l2.ReadReq_mshr_misses                    8727                       # number of ReadReq MSHR misses
system.l2.UpgradeReq_accesses                   52174                       # number of UpgradeReq accesses(hits+misses)
system.l2.UpgradeReq_avg_miss_latency    59075.478208                       # average UpgradeReq miss latency
system.l2.UpgradeReq_avg_mshr_miss_latency 43326.724039                       # average UpgradeReq mshr miss latency
system.l2.UpgradeReq_miss_latency          3082204000                       # number of UpgradeReq miss cycles
system.l2.UpgradeReq_miss_rate                      1                       # miss rate for UpgradeReq accesses
system.l2.UpgradeReq_misses                     52174                       # number of UpgradeReq misses
system.l2.UpgradeReq_mshr_miss_latency     2260528500                       # number of UpgradeReq MSHR miss cycles
system.l2.UpgradeReq_mshr_miss_rate                 1                       # mshr miss rate for UpgradeReq accesses
system.l2.UpgradeReq_mshr_misses                52174                       # number of UpgradeReq MSHR misses
system.l2.Writeback_accesses                    77243                       # number of Writeback accesses(hits+misses)
system.l2.Writeback_hits                        77243                       # number of Writeback hits
system.l2.avg_blocked_cycles::no_mshrs       no_value                       # average number of cycles each access was blocked
system.l2.avg_blocked_cycles::no_targets     no_value                       # average number of cycles each access was blocked
system.l2.avg_refs                           0.022212                       # Average number of references to valid blocks.
system.l2.blocked::no_mshrs                         0                       # number of cycles access was blocked
system.l2.blocked::no_targets                       0                       # number of cycles access was blocked
system.l2.blocked_cycles::no_mshrs                  0                       # number of cycles access was blocked
system.l2.blocked_cycles::no_targets                0                       # number of cycles access was blocked
system.l2.cache_copies                              0                       # number of cache copies performed
system.l2.demand_accesses                       78347                       # number of demand (read+write) accesses
system.l2.demand_avg_miss_latency        59803.352786                       # average overall miss latency
system.l2.demand_avg_mshr_miss_latency   44176.012818                       # average overall mshr miss latency
system.l2.demand_hits                           69608                       # number of demand (read+write) hits
system.l2.demand_miss_latency               522621500                       # number of demand (read+write) miss cycles
system.l2.demand_miss_rate                   0.111542                       # miss rate for demand accesses
system.l2.demand_misses                          8739                       # number of demand (read+write) misses
system.l2.demand_mshr_hits                          0                       # number of demand (read+write) MSHR hits
system.l2.demand_mshr_miss_latency          386010000                       # number of demand (read+write) MSHR miss cycles
system.l2.demand_mshr_miss_rate              0.111529                       # mshr miss rate for demand accesses
system.l2.demand_mshr_misses                     8738                       # number of demand (read+write) MSHR misses
system.l2.fast_writes                               0                       # number of fast writes performed
system.l2.mshr_cap_events                           0                       # number of times MSHR cap was activated
system.l2.no_allocate_misses                        0                       # Number of misses that were no-allocate
system.l2.occ_%::0                           0.003106                       # Average percentage of cache occupancy
system.l2.occ_%::1                           0.452285                       # Average percentage of cache occupancy
system.l2.occ_blocks::0                     50.894530                       # Average occupied blocks per context
system.l2.occ_blocks::1                   7410.232896                       # Average occupied blocks per context
system.l2.overall_accesses                      78347                       # number of overall (read+write) accesses
system.l2.overall_avg_miss_latency       59803.352786                       # average overall miss latency
system.l2.overall_avg_mshr_miss_latency  35602.548314                       # average overall mshr miss latency
system.l2.overall_avg_mshr_uncacheable_latency     no_value                       # average overall mshr uncacheable latency
system.l2.overall_hits                          69608                       # number of overall hits
system.l2.overall_miss_latency              522621500                       # number of overall miss cycles
system.l2.overall_miss_rate                  0.111542                       # miss rate for overall accesses
system.l2.overall_misses                         8739                       # number of overall misses
system.l2.overall_mshr_hits                         0                       # number of overall MSHR hits
system.l2.overall_mshr_miss_latency        2789886891                       # number of overall MSHR miss cycles
system.l2.overall_mshr_miss_rate             1.000191                       # mshr miss rate for overall accesses
system.l2.overall_mshr_misses                   78362                       # number of overall MSHR misses
system.l2.overall_mshr_uncacheable_latency            0                       # number of overall MSHR uncacheable cycles
system.l2.overall_mshr_uncacheable_misses            0                       # number of overall MSHR uncacheable misses
system.l2.prefetch_accuracy                  0.624785                       # ratio of good prefetches to total prefetches
system.l2.prefetch_hits                         43500                       # number of prefetched blocks that were accessed
system.l2.prefetcher.num_hwpf_already_in_prefetcher         8751                       # number of hwpf that were already in the prefetch queue
system.l2.prefetcher.num_hwpf_evicted               0                       # number of hwpf removed due to no buffer left
system.l2.prefetcher.num_hwpf_identified        78381                       # number of hwpf identified
system.l2.prefetcher.num_hwpf_issued            69630                       # number of hwpf issued
system.l2.prefetcher.num_hwpf_removed_MSHR_hit            0                       # number of hwpf removed because MSHR allocated
system.l2.prefetcher.num_hwpf_span_page             0                       # number of hwpf spanning a virtual page
system.l2.prefetcher.num_hwpf_squashed_from_miss            0                       # number of hwpf that got squashed due to a miss aborting calculation time
system.l2.replacements                          69107                       # number of replacements
system.l2.sampled_refs                          77345                       # Sample count of references to valid blocks.
system.l2.soft_prefetch_mshr_full                   0                       # number of mshr full events for SW prefetching instrutions
system.l2.tagsinuse                       7461.127426                       # Cycle average of tags in use
system.l2.total_refs                             1718                       # Total number of references to valid blocks.
system.l2.warmup_cycle                              0                       # Cycle when the warmup percentage was hit.
system.l2.writebacks                            69055                       # number of writebacks
system.switch_cpus.dtb.data_accesses          2101668                       # DTB accesses
system.switch_cpus.dtb.data_acv                     0                       # DTB access violations
system.switch_cpus.dtb.data_hits              2101344                       # DTB hits
system.switch_cpus.dtb.data_misses                324                       # DTB misses
system.switch_cpus.dtb.fetch_accesses               0                       # ITB accesses
system.switch_cpus.dtb.fetch_acv                    0                       # ITB acv
system.switch_cpus.dtb.fetch_hits                   0                       # ITB hits
system.switch_cpus.dtb.fetch_misses                 0                       # ITB misses
system.switch_cpus.dtb.read_accesses          1481486                       # DTB read accesses
system.switch_cpus.dtb.read_acv                     0                       # DTB read access violations
system.switch_cpus.dtb.read_hits              1481268                       # DTB read hits
system.switch_cpus.dtb.read_misses                218                       # DTB read misses
system.switch_cpus.dtb.write_accesses          620182                       # DTB write accesses
system.switch_cpus.dtb.write_acv                    0                       # DTB write access violations
system.switch_cpus.dtb.write_hits              620076                       # DTB write hits
system.switch_cpus.dtb.write_misses               106                       # DTB write misses
system.switch_cpus.idle_fraction                    1                       # Percentage of idle cycles
system.switch_cpus.itb.data_accesses                0                       # DTB accesses
system.switch_cpus.itb.data_acv                     0                       # DTB access violations
system.switch_cpus.itb.data_hits                    0                       # DTB hits
system.switch_cpus.itb.data_misses                  0                       # DTB misses
system.switch_cpus.itb.fetch_accesses        10000330                       # ITB accesses
system.switch_cpus.itb.fetch_acv                    0                       # ITB acv
system.switch_cpus.itb.fetch_hits            10000326                       # ITB hits
system.switch_cpus.itb.fetch_misses                 4                       # ITB misses
system.switch_cpus.itb.read_accesses                0                       # DTB read accesses
system.switch_cpus.itb.read_acv                     0                       # DTB read access violations
system.switch_cpus.itb.read_hits                    0                       # DTB read hits
system.switch_cpus.itb.read_misses                  0                       # DTB read misses
system.switch_cpus.itb.write_accesses               0                       # DTB write accesses
system.switch_cpus.itb.write_acv                    0                       # DTB write access violations
system.switch_cpus.itb.write_hits                   0                       # DTB write hits
system.switch_cpus.itb.write_misses                 0                       # DTB write misses
system.switch_cpus.not_idle_fraction                0                       # Percentage of non-idle cycles
system.switch_cpus.numCycles                 28677418                       # number of cpu cycles simulated
system.switch_cpus.num_insts                 10000001                       # Number of instructions executed
system.switch_cpus.num_refs                   2170562                       # Number of memory references
system.switch_cpus_1.BPredUnit.BTBCorrect            0                       # Number of correct BTB predictions (this stat may not work properly.
system.switch_cpus_1.BPredUnit.BTBHits        1214297                       # Number of BTB hits
system.switch_cpus_1.BPredUnit.BTBLookups      2358242                       # Number of BTB lookups
system.switch_cpus_1.BPredUnit.RASInCorrect            2                       # Number of incorrect RAS predictions.
system.switch_cpus_1.BPredUnit.condIncorrect       162827                       # Number of conditional branches incorrect
system.switch_cpus_1.BPredUnit.condPredicted      2043983                       # Number of conditional branches predicted
system.switch_cpus_1.BPredUnit.lookups        2796073                       # Number of BP lookups
system.switch_cpus_1.BPredUnit.usedRAS         286296                       # Number of times the RAS was used to get a target.
system.switch_cpus_1.commit.COM:branches      1390146                       # Number of branches committed
system.switch_cpus_1.commit.COM:bw_lim_events       526409                       # number cycles where commit BW limit reached
system.switch_cpus_1.commit.COM:bw_limited            0                       # number of insts not committed due to BW limits
system.switch_cpus_1.commit.COM:committed_per_cycle::samples     10251820                       # Number of insts commited each cycle
system.switch_cpus_1.commit.COM:committed_per_cycle::mean     0.994277                       # Number of insts commited each cycle
system.switch_cpus_1.commit.COM:committed_per_cycle::stdev     2.088202                       # Number of insts commited each cycle
system.switch_cpus_1.commit.COM:committed_per_cycle::underflows            0      0.00%      0.00% # Number of insts commited each cycle
system.switch_cpus_1.commit.COM:committed_per_cycle::0      7230534     70.53%     70.53% # Number of insts commited each cycle
system.switch_cpus_1.commit.COM:committed_per_cycle::1       969430      9.46%     79.99% # Number of insts commited each cycle
system.switch_cpus_1.commit.COM:committed_per_cycle::2       701899      6.85%     86.83% # Number of insts commited each cycle
system.switch_cpus_1.commit.COM:committed_per_cycle::3       298488      2.91%     89.74% # Number of insts commited each cycle
system.switch_cpus_1.commit.COM:committed_per_cycle::4       212872      2.08%     91.82% # Number of insts commited each cycle
system.switch_cpus_1.commit.COM:committed_per_cycle::5        94503      0.92%     92.74% # Number of insts commited each cycle
system.switch_cpus_1.commit.COM:committed_per_cycle::6       134609      1.31%     94.05% # Number of insts commited each cycle
system.switch_cpus_1.commit.COM:committed_per_cycle::7        83076      0.81%     94.87% # Number of insts commited each cycle
system.switch_cpus_1.commit.COM:committed_per_cycle::8       526409      5.13%    100.00% # Number of insts commited each cycle
system.switch_cpus_1.commit.COM:committed_per_cycle::overflows            0      0.00%    100.00% # Number of insts commited each cycle
system.switch_cpus_1.commit.COM:committed_per_cycle::min_value            0                       # Number of insts commited each cycle
system.switch_cpus_1.commit.COM:committed_per_cycle::max_value            8                       # Number of insts commited each cycle
system.switch_cpus_1.commit.COM:committed_per_cycle::total     10251820                       # Number of insts commited each cycle
system.switch_cpus_1.commit.COM:count        10193153                       # Number of instructions committed
system.switch_cpus_1.commit.COM:loads         1580244                       # Number of loads committed
system.switch_cpus_1.commit.COM:membars             0                       # Number of memory barriers committed
system.switch_cpus_1.commit.COM:refs          2212344                       # Number of memory references committed
system.switch_cpus_1.commit.COM:swp_count            0                       # Number of s/w prefetches committed
system.switch_cpus_1.commit.branchMispredicts       162816                       # The number of times a branch was mispredicted
system.switch_cpus_1.commit.commitCommittedInsts     10193153                       # The number of committed instructions
system.switch_cpus_1.commit.commitSquashedInsts      4369936                       # The number of squashed insts skipped by commit
system.switch_cpus_1.committedInsts          10000001                       # Number of Instructions Simulated
system.switch_cpus_1.committedInsts_total     10000001                       # Number of Instructions Simulated
system.switch_cpus_1.cpi                     1.112874                       # CPI: Cycles Per Instruction
system.switch_cpus_1.cpi_total               1.112874                       # CPI: Total CPI of All Threads
system.switch_cpus_1.decode.DECODE:BlockedCycles      1288284                       # Number of cycles decode is blocked
system.switch_cpus_1.decode.DECODE:BranchMispred           11                       # Number of times decode detected a branch misprediction
system.switch_cpus_1.decode.DECODE:BranchResolved       459382                       # Number of times decode resolved a branch
system.switch_cpus_1.decode.DECODE:DecodedInsts     19718835                       # Number of instructions handled by decode
system.switch_cpus_1.decode.DECODE:IdleCycles      5442157                       # Number of cycles decode is idle
system.switch_cpus_1.decode.DECODE:RunCycles      3503489                       # Number of cycles decode is running
system.switch_cpus_1.decode.DECODE:SquashCycles       843002                       # Number of cycles decode is squashing
system.switch_cpus_1.decode.DECODE:SquashedInsts           46                       # Number of squashed instructions handled by decode
system.switch_cpus_1.decode.DECODE:UnblockCycles        17889                       # Number of cycles decode is unblocking
system.switch_cpus_1.dtb.data_accesses        2890246                       # DTB accesses
system.switch_cpus_1.dtb.data_acv                   0                       # DTB access violations
system.switch_cpus_1.dtb.data_hits            2888656                       # DTB hits
system.switch_cpus_1.dtb.data_misses             1590                       # DTB misses
system.switch_cpus_1.dtb.fetch_accesses             0                       # ITB accesses
system.switch_cpus_1.dtb.fetch_acv                  0                       # ITB acv
system.switch_cpus_1.dtb.fetch_hits                 0                       # ITB hits
system.switch_cpus_1.dtb.fetch_misses               0                       # ITB misses
system.switch_cpus_1.dtb.read_accesses        2235504                       # DTB read accesses
system.switch_cpus_1.dtb.read_acv                   0                       # DTB read access violations
system.switch_cpus_1.dtb.read_hits            2234332                       # DTB read hits
system.switch_cpus_1.dtb.read_misses             1172                       # DTB read misses
system.switch_cpus_1.dtb.write_accesses        654742                       # DTB write accesses
system.switch_cpus_1.dtb.write_acv                  0                       # DTB write access violations
system.switch_cpus_1.dtb.write_hits            654324                       # DTB write hits
system.switch_cpus_1.dtb.write_misses             418                       # DTB write misses
system.switch_cpus_1.fetch.Branches           2796073                       # Number of branches that fetch encountered
system.switch_cpus_1.fetch.CacheLines         2640139                       # Number of cache lines fetched
system.switch_cpus_1.fetch.Cycles             6263693                       # Number of cycles fetch has run and was not squashing or blocked
system.switch_cpus_1.fetch.IcacheSquashes        47675                       # Number of outstanding Icache misses that were squashed
system.switch_cpus_1.fetch.Insts             20206398                       # Number of instructions fetch has processed
system.switch_cpus_1.fetch.SquashCycles        481296                       # Number of cycles fetch has spent squashing
system.switch_cpus_1.fetch.branchRate        0.251248                       # Number of branch fetches per cycle
system.switch_cpus_1.fetch.icacheStallCycles      2640139                       # Number of cycles fetch is stalled on an Icache miss
system.switch_cpus_1.fetch.predictedBranches      1500593                       # Number of branches that fetch has predicted taken
system.switch_cpus_1.fetch.rate              1.815695                       # Number of inst fetches per cycle
system.switch_cpus_1.fetch.rateDist::samples     11094822                       # Number of instructions fetched each cycle (Total)
system.switch_cpus_1.fetch.rateDist::mean     1.821246                       # Number of instructions fetched each cycle (Total)
system.switch_cpus_1.fetch.rateDist::stdev     2.938398                       # Number of instructions fetched each cycle (Total)
system.switch_cpus_1.fetch.rateDist::underflows            0      0.00%      0.00% # Number of instructions fetched each cycle (Total)
system.switch_cpus_1.fetch.rateDist::0        7471276     67.34%     67.34% # Number of instructions fetched each cycle (Total)
system.switch_cpus_1.fetch.rateDist::1         197802      1.78%     69.12% # Number of instructions fetched each cycle (Total)
system.switch_cpus_1.fetch.rateDist::2         171267      1.54%     70.67% # Number of instructions fetched each cycle (Total)
system.switch_cpus_1.fetch.rateDist::3         568578      5.12%     75.79% # Number of instructions fetched each cycle (Total)
system.switch_cpus_1.fetch.rateDist::4         435356      3.92%     79.72% # Number of instructions fetched each cycle (Total)
system.switch_cpus_1.fetch.rateDist::5         246089      2.22%     81.93% # Number of instructions fetched each cycle (Total)
system.switch_cpus_1.fetch.rateDist::6         450027      4.06%     85.99% # Number of instructions fetched each cycle (Total)
system.switch_cpus_1.fetch.rateDist::7         147119      1.33%     87.32% # Number of instructions fetched each cycle (Total)
system.switch_cpus_1.fetch.rateDist::8        1407308     12.68%    100.00% # Number of instructions fetched each cycle (Total)
system.switch_cpus_1.fetch.rateDist::overflows            0      0.00%    100.00% # Number of instructions fetched each cycle (Total)
system.switch_cpus_1.fetch.rateDist::min_value            0                       # Number of instructions fetched each cycle (Total)
system.switch_cpus_1.fetch.rateDist::max_value            8                       # Number of instructions fetched each cycle (Total)
system.switch_cpus_1.fetch.rateDist::total     11094822                       # Number of instructions fetched each cycle (Total)
system.switch_cpus_1.idleCycles                 33917                       # Total number of cycles that the CPU has spent unscheduled due to idling
system.switch_cpus_1.iew.EXEC:branches        1779590                       # Number of branches executed
system.switch_cpus_1.iew.EXEC:nop              264557                       # number of nop insts executed
system.switch_cpus_1.iew.EXEC:rate           1.089443                       # Inst execution rate
system.switch_cpus_1.iew.EXEC:refs            2961222                       # number of memory reference insts executed
system.switch_cpus_1.iew.EXEC:stores           654742                       # Number of stores executed
system.switch_cpus_1.iew.EXEC:swp                   0                       # number of swp insts executed
system.switch_cpus_1.iew.WB:consumers         9259504                       # num instructions consuming a value
system.switch_cpus_1.iew.WB:count            11534683                       # cumulative count of insts written-back
system.switch_cpus_1.iew.WB:fanout           0.681313                       # average fanout of values written-back
system.switch_cpus_1.iew.WB:penalized               0                       # number of instrctions required to write to 'other' IQ
system.switch_cpus_1.iew.WB:penalized_rate            0                       # fraction of instructions written-back that wrote to 'other' IQ
system.switch_cpus_1.iew.WB:producers         6308616                       # num instructions producing a value
system.switch_cpus_1.iew.WB:rate             1.036477                       # insts written-back per cycle
system.switch_cpus_1.iew.WB:sent             11544894                       # cumulative count of insts sent to commit
system.switch_cpus_1.iew.branchMispredicts       182595                       # Number of branch mispredicts detected at execute
system.switch_cpus_1.iew.iewBlockCycles        576607                       # Number of cycles IEW is blocking
system.switch_cpus_1.iew.iewDispLoadInsts      2457745                       # Number of dispatched load instructions
system.switch_cpus_1.iew.iewDispNonSpecInsts            0                       # Number of dispatched non-speculative instructions
system.switch_cpus_1.iew.iewDispSquashedInsts      1675336                       # Number of squashed instructions skipped by dispatch
system.switch_cpus_1.iew.iewDispStoreInsts       749983                       # Number of dispatched store instructions
system.switch_cpus_1.iew.iewDispatchedInsts     14569484                       # Number of instructions dispatched to IQ
system.switch_cpus_1.iew.iewExecLoadInsts      2306480                       # Number of load instructions executed
system.switch_cpus_1.iew.iewExecSquashedInsts       355079                       # Number of squashed instructions skipped in execute
system.switch_cpus_1.iew.iewExecutedInsts     12124127                       # Number of executed instructions
system.switch_cpus_1.iew.iewIQFullEvents       137279                       # Number of times the IQ has become full, causing a stall
system.switch_cpus_1.iew.iewIdleCycles              0                       # Number of cycles IEW is idle
system.switch_cpus_1.iew.iewLSQFullEvents            0                       # Number of times the LSQ has become full, causing a stall
system.switch_cpus_1.iew.iewSquashCycles       843002                       # Number of cycles IEW is squashing
system.switch_cpus_1.iew.iewUnblockCycles       141158                       # Number of cycles IEW is unblocking
system.switch_cpus_1.iew.lsq.thread.0.blockedLoads            0                       # Number of blocked loads due to partial load-store forwarding
system.switch_cpus_1.iew.lsq.thread.0.cacheBlocked       561424                       # Number of times an access to memory failed due to the cache being blocked
system.switch_cpus_1.iew.lsq.thread.0.forwLoads       266130                       # Number of loads that had data forwarded from stores
system.switch_cpus_1.iew.lsq.thread.0.ignoredResponses            7                       # Number of memory responses ignored because the instruction is squashed
system.switch_cpus_1.iew.lsq.thread.0.invAddrLoads            0                       # Number of loads ignored due to an invalid address
system.switch_cpus_1.iew.lsq.thread.0.invAddrSwpfs            0                       # Number of software prefetches ignored due to an invalid address
system.switch_cpus_1.iew.lsq.thread.0.memOrderViolation          118                       # Number of memory ordering violations
system.switch_cpus_1.iew.lsq.thread.0.rescheduledLoads            0                       # Number of loads that were rescheduled
system.switch_cpus_1.iew.lsq.thread.0.squashedLoads       877478                       # Number of loads squashed
system.switch_cpus_1.iew.lsq.thread.0.squashedStores       117877                       # Number of stores squashed
system.switch_cpus_1.iew.memOrderViolationEvents          118                       # Number of memory order violations
system.switch_cpus_1.iew.predictedNotTakenIncorrect        41447                       # Number of branches that were predicted not taken incorrectly
system.switch_cpus_1.iew.predictedTakenIncorrect       141148                       # Number of branches that were predicted taken incorrectly
system.switch_cpus_1.ipc                     0.898574                       # IPC: Instructions Per Cycle
system.switch_cpus_1.ipc_total               0.898574                       # IPC: Total IPC of All Threads
system.switch_cpus_1.iq.ISSUE:FU_type_0::No_OpClass            0      0.00%      0.00% # Type of FU issued
system.switch_cpus_1.iq.ISSUE:FU_type_0::IntAlu      4866641     39.00%     39.00% # Type of FU issued
system.switch_cpus_1.iq.ISSUE:FU_type_0::IntMult        35131      0.28%     39.28% # Type of FU issued
system.switch_cpus_1.iq.ISSUE:FU_type_0::IntDiv            0      0.00%     39.28% # Type of FU issued
system.switch_cpus_1.iq.ISSUE:FU_type_0::FloatAdd      2270455     18.19%     57.47% # Type of FU issued
system.switch_cpus_1.iq.ISSUE:FU_type_0::FloatCmp       258488      2.07%     59.54% # Type of FU issued
system.switch_cpus_1.iq.ISSUE:FU_type_0::FloatCvt       106270      0.85%     60.40% # Type of FU issued
system.switch_cpus_1.iq.ISSUE:FU_type_0::FloatMult      1498001     12.00%     72.40% # Type of FU issued
system.switch_cpus_1.iq.ISSUE:FU_type_0::FloatDiv       352680      2.83%     75.23% # Type of FU issued
system.switch_cpus_1.iq.ISSUE:FU_type_0::FloatSqrt        35118      0.28%     75.51% # Type of FU issued
system.switch_cpus_1.iq.ISSUE:FU_type_0::MemRead      2399763     19.23%     94.74% # Type of FU issued
system.switch_cpus_1.iq.ISSUE:FU_type_0::MemWrite       656661      5.26%    100.00% # Type of FU issued
system.switch_cpus_1.iq.ISSUE:FU_type_0::IprAccess            0      0.00%    100.00% # Type of FU issued
system.switch_cpus_1.iq.ISSUE:FU_type_0::InstPrefetch            0      0.00%    100.00% # Type of FU issued
system.switch_cpus_1.iq.ISSUE:FU_type_0::total     12479208                       # Type of FU issued
system.switch_cpus_1.iq.ISSUE:fu_busy_cnt       494208                       # FU busy when requested
system.switch_cpus_1.iq.ISSUE:fu_busy_rate     0.039603                       # FU busy rate (busy events/executed inst)
system.switch_cpus_1.iq.ISSUE:fu_full::No_OpClass            0      0.00%      0.00% # attempts to use FU when none available
system.switch_cpus_1.iq.ISSUE:fu_full::IntAlu        16018      3.24%      3.24% # attempts to use FU when none available
system.switch_cpus_1.iq.ISSUE:fu_full::IntMult            0      0.00%      3.24% # attempts to use FU when none available
system.switch_cpus_1.iq.ISSUE:fu_full::IntDiv            0      0.00%      3.24% # attempts to use FU when none available
system.switch_cpus_1.iq.ISSUE:fu_full::FloatAdd         4486      0.91%      4.15% # attempts to use FU when none available
system.switch_cpus_1.iq.ISSUE:fu_full::FloatCmp           47      0.01%      4.16% # attempts to use FU when none available
system.switch_cpus_1.iq.ISSUE:fu_full::FloatCvt            0      0.00%      4.16% # attempts to use FU when none available
system.switch_cpus_1.iq.ISSUE:fu_full::FloatMult       278029     56.26%     60.42% # attempts to use FU when none available
system.switch_cpus_1.iq.ISSUE:fu_full::FloatDiv       114763     23.22%     83.64% # attempts to use FU when none available
system.switch_cpus_1.iq.ISSUE:fu_full::FloatSqrt            0      0.00%     83.64% # attempts to use FU when none available
system.switch_cpus_1.iq.ISSUE:fu_full::MemRead        80027     16.19%     99.83% # attempts to use FU when none available
system.switch_cpus_1.iq.ISSUE:fu_full::MemWrite          838      0.17%    100.00% # attempts to use FU when none available
system.switch_cpus_1.iq.ISSUE:fu_full::IprAccess            0      0.00%    100.00% # attempts to use FU when none available
system.switch_cpus_1.iq.ISSUE:fu_full::InstPrefetch            0      0.00%    100.00% # attempts to use FU when none available
system.switch_cpus_1.iq.ISSUE:issued_per_cycle::samples     11094822                       # Number of insts issued each cycle
system.switch_cpus_1.iq.ISSUE:issued_per_cycle::mean     1.124778                       # Number of insts issued each cycle
system.switch_cpus_1.iq.ISSUE:issued_per_cycle::stdev     1.586037                       # Number of insts issued each cycle
system.switch_cpus_1.iq.ISSUE:issued_per_cycle::underflows            0      0.00%      0.00% # Number of insts issued each cycle
system.switch_cpus_1.iq.ISSUE:issued_per_cycle::0      5981799     53.92%     53.92% # Number of insts issued each cycle
system.switch_cpus_1.iq.ISSUE:issued_per_cycle::1      1725666     15.55%     69.47% # Number of insts issued each cycle
system.switch_cpus_1.iq.ISSUE:issued_per_cycle::2      1425983     12.85%     82.32% # Number of insts issued each cycle
system.switch_cpus_1.iq.ISSUE:issued_per_cycle::3       830979      7.49%     89.81% # Number of insts issued each cycle
system.switch_cpus_1.iq.ISSUE:issued_per_cycle::4       612526      5.52%     95.33% # Number of insts issued each cycle
system.switch_cpus_1.iq.ISSUE:issued_per_cycle::5       244483      2.20%     97.54% # Number of insts issued each cycle
system.switch_cpus_1.iq.ISSUE:issued_per_cycle::6       196217      1.77%     99.30% # Number of insts issued each cycle
system.switch_cpus_1.iq.ISSUE:issued_per_cycle::7        58534      0.53%     99.83% # Number of insts issued each cycle
system.switch_cpus_1.iq.ISSUE:issued_per_cycle::8        18635      0.17%    100.00% # Number of insts issued each cycle
system.switch_cpus_1.iq.ISSUE:issued_per_cycle::overflows            0      0.00%    100.00% # Number of insts issued each cycle
system.switch_cpus_1.iq.ISSUE:issued_per_cycle::min_value            0                       # Number of insts issued each cycle
system.switch_cpus_1.iq.ISSUE:issued_per_cycle::max_value            8                       # Number of insts issued each cycle
system.switch_cpus_1.iq.ISSUE:issued_per_cycle::total     11094822                       # Number of insts issued each cycle
system.switch_cpus_1.iq.ISSUE:rate           1.121350                       # Inst issue rate
system.switch_cpus_1.iq.iqInstsAdded         14304927                       # Number of instructions added to the IQ (excludes non-spec)
system.switch_cpus_1.iq.iqInstsIssued        12479208                       # Number of instructions issued
system.switch_cpus_1.iq.iqSquashedInstsExamined      4304727                       # Number of squashed instructions iterated over during squash; mainly for profiling
system.switch_cpus_1.iq.iqSquashedInstsIssued        81168                       # Number of squashed instructions issued
system.switch_cpus_1.iq.iqSquashedOperandsExamined      3941141                       # Number of squashed operands that are examined and possibly removed from graph
system.switch_cpus_1.itb.data_accesses              0                       # DTB accesses
system.switch_cpus_1.itb.data_acv                   0                       # DTB access violations
system.switch_cpus_1.itb.data_hits                  0                       # DTB hits
system.switch_cpus_1.itb.data_misses                0                       # DTB misses
system.switch_cpus_1.itb.fetch_accesses       2640147                       # ITB accesses
system.switch_cpus_1.itb.fetch_acv                  0                       # ITB acv
system.switch_cpus_1.itb.fetch_hits           2640139                       # ITB hits
system.switch_cpus_1.itb.fetch_misses               8                       # ITB misses
system.switch_cpus_1.itb.read_accesses              0                       # DTB read accesses
system.switch_cpus_1.itb.read_acv                   0                       # DTB read access violations
system.switch_cpus_1.itb.read_hits                  0                       # DTB read hits
system.switch_cpus_1.itb.read_misses                0                       # DTB read misses
system.switch_cpus_1.itb.write_accesses             0                       # DTB write accesses
system.switch_cpus_1.itb.write_acv                  0                       # DTB write access violations
system.switch_cpus_1.itb.write_hits                 0                       # DTB write hits
system.switch_cpus_1.itb.write_misses               0                       # DTB write misses
system.switch_cpus_1.memDep0.conflictingLoads       562101                       # Number of conflicting loads.
system.switch_cpus_1.memDep0.conflictingStores       120072                       # Number of conflicting stores.
system.switch_cpus_1.memDep0.insertedLoads      2457745                       # Number of loads inserted to the mem dependence unit.
system.switch_cpus_1.memDep0.insertedStores       749983                       # Number of stores inserted to the mem dependence unit.
system.switch_cpus_1.numCycles               11128739                       # number of cpu cycles simulated
system.switch_cpus_1.rename.RENAME:BlockCycles       988118                       # Number of cycles rename is blocking
system.switch_cpus_1.rename.RENAME:CommittedMaps      8012869                       # Number of HB maps that are committed
system.switch_cpus_1.rename.RENAME:IQFullEvents       131695                       # Number of times rename has blocked due to IQ full
system.switch_cpus_1.rename.RENAME:IdleCycles      5609371                       # Number of cycles rename is idle
system.switch_cpus_1.rename.RENAME:LSQFullEvents       106001                       # Number of times rename has blocked due to LSQ full
system.switch_cpus_1.rename.RENAME:ROBFullEvents          510                       # Number of times rename has blocked due to ROB full
system.switch_cpus_1.rename.RENAME:RenameLookups     28958500                       # Number of register rename lookups that rename has made
system.switch_cpus_1.rename.RENAME:RenamedInsts     19177117                       # Number of instructions processed by rename
system.switch_cpus_1.rename.RENAME:RenamedOperands     15504152                       # Number of destination operands rename has renamed
system.switch_cpus_1.rename.RENAME:RunCycles      3376582                       # Number of cycles rename is running
system.switch_cpus_1.rename.RENAME:SquashCycles       843002                       # Number of cycles rename is squashing
system.switch_cpus_1.rename.RENAME:UnblockCycles       277748                       # Number of cycles rename is unblocking
system.switch_cpus_1.rename.RENAME:UndoneMaps      7491182                       # Number of HB maps that are undone due to squashing
system.switch_cpus_1.rename.RENAME:serializeStallCycles            0                       # count of cycles rename stalled for serializing inst
system.switch_cpus_1.rename.RENAME:serializingInsts            0                       # count of serializing insts renamed
system.switch_cpus_1.rename.RENAME:skidInsts       740340                       # count of insts added to the skid buffer
system.switch_cpus_1.rename.RENAME:tempSerializingInsts            0                       # count of temporary serializing insts renamed
system.switch_cpus_1.timesIdled                 10984                       # Number of times that the entire CPU went into an idle state and unscheduled itself

---------- End Simulation Statistics   ----------
