
---------- Begin Simulation Statistics ----------
host_inst_rate                                 123520                       # Simulator instruction rate (inst/s)
host_mem_usage                                 333808                       # Number of bytes of host memory used
host_seconds                                   161.92                       # Real time elapsed on the host
host_tick_rate                              633031283                       # Simulator tick rate (ticks/s)
sim_freq                                 1000000000000                       # Frequency of simulated ticks
sim_insts                                    20000003                       # Number of instructions simulated
sim_seconds                                  0.102499                       # Number of seconds simulated
sim_ticks                                102498689000                       # Number of ticks simulated
system.cpu.dcache.ReadReq_accesses            5609194                       # number of ReadReq accesses(hits+misses)
system.cpu.dcache.ReadReq_avg_miss_latency 31667.354891                       # average ReadReq miss latency
system.cpu.dcache.ReadReq_avg_mshr_miss_latency 28355.972482                       # average ReadReq mshr miss latency
system.cpu.dcache.ReadReq_hits                2083937                       # number of ReadReq hits
system.cpu.dcache.ReadReq_miss_latency   111635564500                       # number of ReadReq miss cycles
system.cpu.dcache.ReadReq_miss_rate          0.628478                       # miss rate for ReadReq accesses
system.cpu.dcache.ReadReq_misses              3525257                       # number of ReadReq misses
system.cpu.dcache.ReadReq_mshr_hits              4225                       # number of ReadReq MSHR hits
system.cpu.dcache.ReadReq_mshr_miss_latency  99842286500                       # number of ReadReq MSHR miss cycles
system.cpu.dcache.ReadReq_mshr_miss_rate     0.627725                       # mshr miss rate for ReadReq accesses
system.cpu.dcache.ReadReq_mshr_misses         3521032                       # number of ReadReq MSHR misses
system.cpu.dcache.WriteReq_accesses            293301                       # number of WriteReq accesses(hits+misses)
system.cpu.dcache.WriteReq_avg_miss_latency 86437.044430                       # average WriteReq miss latency
system.cpu.dcache.WriteReq_avg_mshr_miss_latency 83804.633986                       # average WriteReq mshr miss latency
system.cpu.dcache.WriteReq_hits                285446                       # number of WriteReq hits
system.cpu.dcache.WriteReq_miss_latency     678962984                       # number of WriteReq miss cycles
system.cpu.dcache.WriteReq_miss_rate         0.026781                       # miss rate for WriteReq accesses
system.cpu.dcache.WriteReq_misses                7855                       # number of WriteReq misses
system.cpu.dcache.WriteReq_mshr_hits             3000                       # number of WriteReq MSHR hits
system.cpu.dcache.WriteReq_mshr_miss_latency    406871498                       # number of WriteReq MSHR miss cycles
system.cpu.dcache.WriteReq_mshr_miss_rate     0.016553                       # mshr miss rate for WriteReq accesses
system.cpu.dcache.WriteReq_mshr_misses           4855                       # number of WriteReq MSHR misses
system.cpu.dcache.avg_blocked_cycles::no_mshrs 17363.454545                       # average number of cycles each access was blocked
system.cpu.dcache.avg_blocked_cycles::no_targets 73901.078040                       # average number of cycles each access was blocked
system.cpu.dcache.avg_refs                   0.672475                       # Average number of references to valid blocks.
system.cpu.dcache.blocked::no_mshrs                11                       # number of cycles access was blocked
system.cpu.dcache.blocked::no_targets             551                       # number of cycles access was blocked
system.cpu.dcache.blocked_cycles::no_mshrs       190998                       # number of cycles access was blocked
system.cpu.dcache.blocked_cycles::no_targets     40719494                       # number of cycles access was blocked
system.cpu.dcache.cache_copies                      0                       # number of cache copies performed
system.cpu.dcache.demand_accesses             5902495                       # number of demand (read+write) accesses
system.cpu.dcache.demand_avg_miss_latency 31789.121739                       # average overall miss latency
system.cpu.dcache.demand_avg_mshr_miss_latency 28432.322987                       # average overall mshr miss latency
system.cpu.dcache.demand_hits                 2369383                       # number of demand (read+write) hits
system.cpu.dcache.demand_miss_latency    112314527484                       # number of demand (read+write) miss cycles
system.cpu.dcache.demand_miss_rate           0.598579                       # miss rate for demand accesses
system.cpu.dcache.demand_misses               3533112                       # number of demand (read+write) misses
system.cpu.dcache.demand_mshr_hits               7225                       # number of demand (read+write) MSHR hits
system.cpu.dcache.demand_mshr_miss_latency 100249157998                       # number of demand (read+write) MSHR miss cycles
system.cpu.dcache.demand_mshr_miss_rate      0.597355                       # mshr miss rate for demand accesses
system.cpu.dcache.demand_mshr_misses          3525887                       # number of demand (read+write) MSHR misses
system.cpu.dcache.fast_writes                       0                       # number of fast writes performed
system.cpu.dcache.mshr_cap_events                   0                       # number of times MSHR cap was activated
system.cpu.dcache.no_allocate_misses                0                       # Number of misses that were no-allocate
system.cpu.dcache.occ_%::0                   0.624678                       # Average percentage of cache occupancy
system.cpu.dcache.occ_blocks::0            639.670117                       # Average occupied blocks per context
system.cpu.dcache.overall_accesses            5902495                       # number of overall (read+write) accesses
system.cpu.dcache.overall_avg_miss_latency 31789.121739                       # average overall miss latency
system.cpu.dcache.overall_avg_mshr_miss_latency 28432.322987                       # average overall mshr miss latency
system.cpu.dcache.overall_avg_mshr_uncacheable_latency     no_value                       # average overall mshr uncacheable latency
system.cpu.dcache.overall_hits                2369383                       # number of overall hits
system.cpu.dcache.overall_miss_latency   112314527484                       # number of overall miss cycles
system.cpu.dcache.overall_miss_rate          0.598579                       # miss rate for overall accesses
system.cpu.dcache.overall_misses              3533112                       # number of overall misses
system.cpu.dcache.overall_mshr_hits              7225                       # number of overall MSHR hits
system.cpu.dcache.overall_mshr_miss_latency 100249157998                       # number of overall MSHR miss cycles
system.cpu.dcache.overall_mshr_miss_rate     0.597355                       # mshr miss rate for overall accesses
system.cpu.dcache.overall_mshr_misses         3525887                       # number of overall MSHR misses
system.cpu.dcache.overall_mshr_uncacheable_latency            0                       # number of overall MSHR uncacheable cycles
system.cpu.dcache.overall_mshr_uncacheable_misses            0                       # number of overall MSHR uncacheable misses
system.cpu.dcache.prefetch_accuracy          no_value                       # ratio of good prefetches to total prefetches
system.cpu.dcache.prefetch_hits                     0                       # number of prefetched blocks that were accessed
system.cpu.dcache.replacements                3524219                       # number of replacements
system.cpu.dcache.sampled_refs                3525069                       # Sample count of references to valid blocks.
system.cpu.dcache.soft_prefetch_mshr_full            0                       # number of mshr full events for SW prefetching instrutions
system.cpu.dcache.tagsinuse                639.670117                       # Cycle average of tags in use
system.cpu.dcache.total_refs                  2370521                       # Total number of references to valid blocks.
system.cpu.dcache.warmup_cycle                      0                       # Cycle when the warmup percentage was hit.
system.cpu.dcache.writebacks                     4506                       # number of writebacks
system.cpu.dtb.data_accesses                        0                       # DTB accesses
system.cpu.dtb.data_acv                             0                       # DTB access violations
system.cpu.dtb.data_hits                            0                       # DTB hits
system.cpu.dtb.data_misses                          0                       # DTB misses
system.cpu.dtb.fetch_accesses                       0                       # ITB accesses
system.cpu.dtb.fetch_acv                            0                       # ITB acv
system.cpu.dtb.fetch_hits                           0                       # ITB hits
system.cpu.dtb.fetch_misses                         0                       # ITB misses
system.cpu.dtb.read_accesses                        0                       # DTB read accesses
system.cpu.dtb.read_acv                             0                       # DTB read access violations
system.cpu.dtb.read_hits                            0                       # DTB read hits
system.cpu.dtb.read_misses                          0                       # DTB read misses
system.cpu.dtb.write_accesses                       0                       # DTB write accesses
system.cpu.dtb.write_acv                            0                       # DTB write access violations
system.cpu.dtb.write_hits                           0                       # DTB write hits
system.cpu.dtb.write_misses                         0                       # DTB write misses
system.cpu.icache.ReadReq_accesses           13521605                       # number of ReadReq accesses(hits+misses)
system.cpu.icache.ReadReq_avg_miss_latency 39780.955829                       # average ReadReq miss latency
system.cpu.icache.ReadReq_avg_mshr_miss_latency 35776.045701                       # average ReadReq mshr miss latency
system.cpu.icache.ReadReq_hits               13516081                       # number of ReadReq hits
system.cpu.icache.ReadReq_miss_latency      219750000                       # number of ReadReq miss cycles
system.cpu.icache.ReadReq_miss_rate          0.000409                       # miss rate for ReadReq accesses
system.cpu.icache.ReadReq_misses                 5524                       # number of ReadReq misses
system.cpu.icache.ReadReq_mshr_hits               359                       # number of ReadReq MSHR hits
system.cpu.icache.ReadReq_mshr_miss_latency    184747500                       # number of ReadReq MSHR miss cycles
system.cpu.icache.ReadReq_mshr_miss_rate     0.000382                       # mshr miss rate for ReadReq accesses
system.cpu.icache.ReadReq_mshr_misses            5164                       # number of ReadReq MSHR misses
system.cpu.icache.avg_blocked_cycles::no_mshrs     no_value                       # average number of cycles each access was blocked
system.cpu.icache.avg_blocked_cycles::no_targets        12000                       # average number of cycles each access was blocked
system.cpu.icache.avg_refs                2616.859826                       # Average number of references to valid blocks.
system.cpu.icache.blocked::no_mshrs                 0                       # number of cycles access was blocked
system.cpu.icache.blocked::no_targets               1                       # number of cycles access was blocked
system.cpu.icache.blocked_cycles::no_mshrs            0                       # number of cycles access was blocked
system.cpu.icache.blocked_cycles::no_targets        12000                       # number of cycles access was blocked
system.cpu.icache.cache_copies                      0                       # number of cache copies performed
system.cpu.icache.demand_accesses            13521605                       # number of demand (read+write) accesses
system.cpu.icache.demand_avg_miss_latency 39780.955829                       # average overall miss latency
system.cpu.icache.demand_avg_mshr_miss_latency 35776.045701                       # average overall mshr miss latency
system.cpu.icache.demand_hits                13516081                       # number of demand (read+write) hits
system.cpu.icache.demand_miss_latency       219750000                       # number of demand (read+write) miss cycles
system.cpu.icache.demand_miss_rate           0.000409                       # miss rate for demand accesses
system.cpu.icache.demand_misses                  5524                       # number of demand (read+write) misses
system.cpu.icache.demand_mshr_hits                359                       # number of demand (read+write) MSHR hits
system.cpu.icache.demand_mshr_miss_latency    184747500                       # number of demand (read+write) MSHR miss cycles
system.cpu.icache.demand_mshr_miss_rate      0.000382                       # mshr miss rate for demand accesses
system.cpu.icache.demand_mshr_misses             5164                       # number of demand (read+write) MSHR misses
system.cpu.icache.fast_writes                       0                       # number of fast writes performed
system.cpu.icache.mshr_cap_events                   0                       # number of times MSHR cap was activated
system.cpu.icache.no_allocate_misses                0                       # Number of misses that were no-allocate
system.cpu.icache.occ_%::0                   0.367954                       # Average percentage of cache occupancy
system.cpu.icache.occ_blocks::0            188.392287                       # Average occupied blocks per context
system.cpu.icache.overall_accesses           13521605                       # number of overall (read+write) accesses
system.cpu.icache.overall_avg_miss_latency 39780.955829                       # average overall miss latency
system.cpu.icache.overall_avg_mshr_miss_latency 35776.045701                       # average overall mshr miss latency
system.cpu.icache.overall_avg_mshr_uncacheable_latency     no_value                       # average overall mshr uncacheable latency
system.cpu.icache.overall_hits               13516081                       # number of overall hits
system.cpu.icache.overall_miss_latency      219750000                       # number of overall miss cycles
system.cpu.icache.overall_miss_rate          0.000409                       # miss rate for overall accesses
system.cpu.icache.overall_misses                 5524                       # number of overall misses
system.cpu.icache.overall_mshr_hits               359                       # number of overall MSHR hits
system.cpu.icache.overall_mshr_miss_latency    184747500                       # number of overall MSHR miss cycles
system.cpu.icache.overall_mshr_miss_rate     0.000382                       # mshr miss rate for overall accesses
system.cpu.icache.overall_mshr_misses            5164                       # number of overall MSHR misses
system.cpu.icache.overall_mshr_uncacheable_latency            0                       # number of overall MSHR uncacheable cycles
system.cpu.icache.overall_mshr_uncacheable_misses            0                       # number of overall MSHR uncacheable misses
system.cpu.icache.prefetch_accuracy          no_value                       # ratio of good prefetches to total prefetches
system.cpu.icache.prefetch_hits                     0                       # number of prefetched blocks that were accessed
system.cpu.icache.replacements                   4957                       # number of replacements
system.cpu.icache.sampled_refs                   5165                       # Sample count of references to valid blocks.
system.cpu.icache.soft_prefetch_mshr_full            0                       # number of mshr full events for SW prefetching instrutions
system.cpu.icache.tagsinuse                188.392287                       # Cycle average of tags in use
system.cpu.icache.total_refs                 13516081                       # Total number of references to valid blocks.
system.cpu.icache.warmup_cycle                      0                       # Cycle when the warmup percentage was hit.
system.cpu.icache.writebacks                        0                       # number of writebacks
system.cpu.idle_fraction                            0                       # Percentage of idle cycles
system.cpu.itb.data_accesses                        0                       # DTB accesses
system.cpu.itb.data_acv                             0                       # DTB access violations
system.cpu.itb.data_hits                            0                       # DTB hits
system.cpu.itb.data_misses                          0                       # DTB misses
system.cpu.itb.fetch_accesses                       2                       # ITB accesses
system.cpu.itb.fetch_acv                            0                       # ITB acv
system.cpu.itb.fetch_hits                           2                       # ITB hits
system.cpu.itb.fetch_misses                         0                       # ITB misses
system.cpu.itb.read_accesses                        0                       # DTB read accesses
system.cpu.itb.read_acv                             0                       # DTB read access violations
system.cpu.itb.read_hits                            0                       # DTB read hits
system.cpu.itb.read_misses                          0                       # DTB read misses
system.cpu.itb.write_accesses                       0                       # DTB write accesses
system.cpu.itb.write_acv                            0                       # DTB write access violations
system.cpu.itb.write_hits                           0                       # DTB write hits
system.cpu.itb.write_misses                         0                       # DTB write misses
system.cpu.not_idle_fraction                        1                       # Percentage of non-idle cycles
system.cpu.numCycles                                2                       # number of cpu cycles simulated
system.cpu.num_insts                                2                       # Number of instructions executed
system.cpu.num_refs                                 0                       # Number of memory references
system.cpu.workload.PROG:num_syscalls               3                       # Number of system calls
system.l2.HardPFReq_avg_mshr_miss_latency 98004.866163                       # average HardPFReq mshr miss latency
system.l2.HardPFReq_mshr_miss_latency    319793798484                       # number of HardPFReq MSHR miss cycles
system.l2.HardPFReq_mshr_miss_rate                inf                       # mshr miss rate for HardPFReq accesses
system.l2.HardPFReq_mshr_misses               3263040                       # number of HardPFReq MSHR misses
system.l2.ReadExReq_accesses                     4037                       # number of ReadExReq accesses(hits+misses)
system.l2.ReadExReq_avg_miss_latency     79689.316770                       # average ReadExReq miss latency
system.l2.ReadExReq_avg_mshr_miss_latency 64181.614907                       # average ReadExReq mshr miss latency
system.l2.ReadExReq_hits                           12                       # number of ReadExReq hits
system.l2.ReadExReq_miss_latency            320749500                       # number of ReadExReq miss cycles
system.l2.ReadExReq_miss_rate                0.997027                       # miss rate for ReadExReq accesses
system.l2.ReadExReq_misses                       4025                       # number of ReadExReq misses
system.l2.ReadExReq_mshr_miss_latency       258331000                       # number of ReadExReq MSHR miss cycles
system.l2.ReadExReq_mshr_miss_rate           0.997027                       # mshr miss rate for ReadExReq accesses
system.l2.ReadExReq_mshr_misses                  4025                       # number of ReadExReq MSHR misses
system.l2.ReadReq_accesses                    3526197                       # number of ReadReq accesses(hits+misses)
system.l2.ReadReq_avg_miss_latency       78845.012904                       # average ReadReq miss latency
system.l2.ReadReq_avg_mshr_miss_latency  99018.319962                       # average ReadReq mshr miss latency
system.l2.ReadReq_hits                        2793065                       # number of ReadReq hits
system.l2.ReadReq_miss_latency            57803802000                       # number of ReadReq miss cycles
system.l2.ReadReq_miss_rate                  0.207910                       # miss rate for ReadReq accesses
system.l2.ReadReq_misses                       733132                       # number of ReadReq misses
system.l2.ReadReq_mshr_hits                    314462                       # number of ReadReq MSHR hits
system.l2.ReadReq_mshr_miss_latency       41455901000                       # number of ReadReq MSHR miss cycles
system.l2.ReadReq_mshr_miss_rate             0.118731                       # mshr miss rate for ReadReq accesses
system.l2.ReadReq_mshr_misses                  418669                       # number of ReadReq MSHR misses
system.l2.UpgradeReq_accesses                     924                       # number of UpgradeReq accesses(hits+misses)
system.l2.UpgradeReq_avg_miss_latency    77279.761905                       # average UpgradeReq miss latency
system.l2.UpgradeReq_avg_mshr_miss_latency 61905.844156                       # average UpgradeReq mshr miss latency
system.l2.UpgradeReq_miss_latency            71406500                       # number of UpgradeReq miss cycles
system.l2.UpgradeReq_miss_rate                      1                       # miss rate for UpgradeReq accesses
system.l2.UpgradeReq_misses                       924                       # number of UpgradeReq misses
system.l2.UpgradeReq_mshr_miss_latency       57201000                       # number of UpgradeReq MSHR miss cycles
system.l2.UpgradeReq_mshr_miss_rate                 1                       # mshr miss rate for UpgradeReq accesses
system.l2.UpgradeReq_mshr_misses                  924                       # number of UpgradeReq MSHR misses
system.l2.Writeback_accesses                     4506                       # number of Writeback accesses(hits+misses)
system.l2.Writeback_hits                         4506                       # number of Writeback hits
system.l2.avg_blocked_cycles::no_mshrs       no_value                       # average number of cycles each access was blocked
system.l2.avg_blocked_cycles::no_targets     no_value                       # average number of cycles each access was blocked
system.l2.avg_refs                           0.758226                       # Average number of references to valid blocks.
system.l2.blocked::no_mshrs                         0                       # number of cycles access was blocked
system.l2.blocked::no_targets                       0                       # number of cycles access was blocked
system.l2.blocked_cycles::no_mshrs                  0                       # number of cycles access was blocked
system.l2.blocked_cycles::no_targets                0                       # number of cycles access was blocked
system.l2.cache_copies                              0                       # number of cache copies performed
system.l2.demand_accesses                     3530234                       # number of demand (read+write) accesses
system.l2.demand_avg_miss_latency        78849.622943                       # average overall miss latency
system.l2.demand_avg_mshr_miss_latency   98686.595977                       # average overall mshr miss latency
system.l2.demand_hits                         2793077                       # number of demand (read+write) hits
system.l2.demand_miss_latency             58124551500                       # number of demand (read+write) miss cycles
system.l2.demand_miss_rate                   0.208813                       # miss rate for demand accesses
system.l2.demand_misses                        737157                       # number of demand (read+write) misses
system.l2.demand_mshr_hits                     314462                       # number of demand (read+write) MSHR hits
system.l2.demand_mshr_miss_latency        41714232000                       # number of demand (read+write) MSHR miss cycles
system.l2.demand_mshr_miss_rate              0.119735                       # mshr miss rate for demand accesses
system.l2.demand_mshr_misses                   422694                       # number of demand (read+write) MSHR misses
system.l2.fast_writes                               0                       # number of fast writes performed
system.l2.mshr_cap_events                           0                       # number of times MSHR cap was activated
system.l2.no_allocate_misses                        0                       # Number of misses that were no-allocate
system.l2.occ_%::0                           0.280800                       # Average percentage of cache occupancy
system.l2.occ_%::1                           0.000483                       # Average percentage of cache occupancy
system.l2.occ_blocks::0                   4600.621046                       # Average occupied blocks per context
system.l2.occ_blocks::1                      7.919917                       # Average occupied blocks per context
system.l2.overall_accesses                    3530234                       # number of overall (read+write) accesses
system.l2.overall_avg_miss_latency       78849.622943                       # average overall miss latency
system.l2.overall_avg_mshr_miss_latency  98083.049532                       # average overall mshr miss latency
system.l2.overall_avg_mshr_uncacheable_latency     no_value                       # average overall mshr uncacheable latency
system.l2.overall_hits                        2793077                       # number of overall hits
system.l2.overall_miss_latency            58124551500                       # number of overall miss cycles
system.l2.overall_miss_rate                  0.208813                       # miss rate for overall accesses
system.l2.overall_misses                       737157                       # number of overall misses
system.l2.overall_mshr_hits                    314462                       # number of overall MSHR hits
system.l2.overall_mshr_miss_latency      361508030484                       # number of overall MSHR miss cycles
system.l2.overall_mshr_miss_rate             1.044048                       # mshr miss rate for overall accesses
system.l2.overall_mshr_misses                 3685734                       # number of overall MSHR misses
system.l2.overall_mshr_uncacheable_latency            0                       # number of overall MSHR uncacheable cycles
system.l2.overall_mshr_uncacheable_misses            0                       # number of overall MSHR uncacheable misses
system.l2.prefetch_accuracy                  0.855123                       # ratio of good prefetches to total prefetches
system.l2.prefetch_hits                       2790300                       # number of prefetched blocks that were accessed
system.l2.prefetcher.num_hwpf_already_in_prefetcher      5832720                       # number of hwpf that were already in the prefetch queue
system.l2.prefetcher.num_hwpf_evicted               0                       # number of hwpf removed due to no buffer left
system.l2.prefetcher.num_hwpf_identified      9497825                       # number of hwpf identified
system.l2.prefetcher.num_hwpf_issued          3383708                       # number of hwpf issued
system.l2.prefetcher.num_hwpf_removed_MSHR_hit       281386                       # number of hwpf removed because MSHR allocated
system.l2.prefetcher.num_hwpf_span_page             0                       # number of hwpf spanning a virtual page
system.l2.prefetcher.num_hwpf_squashed_from_miss            0                       # number of hwpf that got squashed due to a miss aborting calculation time
system.l2.replacements                        3680291                       # number of replacements
system.l2.sampled_refs                        3685089                       # Sample count of references to valid blocks.
system.l2.soft_prefetch_mshr_full                   0                       # number of mshr full events for SW prefetching instrutions
system.l2.tagsinuse                       4608.540964                       # Cycle average of tags in use
system.l2.total_refs                          2794130                       # Total number of references to valid blocks.
system.l2.warmup_cycle                              0                       # Cycle when the warmup percentage was hit.
system.l2.writebacks                             4475                       # number of writebacks
system.switch_cpus.dtb.data_accesses          2832022                       # DTB accesses
system.switch_cpus.dtb.data_acv                     0                       # DTB access violations
system.switch_cpus.dtb.data_hits              2558233                       # DTB hits
system.switch_cpus.dtb.data_misses             273789                       # DTB misses
system.switch_cpus.dtb.fetch_accesses               0                       # ITB accesses
system.switch_cpus.dtb.fetch_acv                    0                       # ITB acv
system.switch_cpus.dtb.fetch_hits                   0                       # ITB hits
system.switch_cpus.dtb.fetch_misses                 0                       # ITB misses
system.switch_cpus.dtb.read_accesses          2682476                       # DTB read accesses
system.switch_cpus.dtb.read_acv                     0                       # DTB read access violations
system.switch_cpus.dtb.read_hits              2409028                       # DTB read hits
system.switch_cpus.dtb.read_misses             273448                       # DTB read misses
system.switch_cpus.dtb.write_accesses          149546                       # DTB write accesses
system.switch_cpus.dtb.write_acv                    0                       # DTB write access violations
system.switch_cpus.dtb.write_hits              149205                       # DTB write hits
system.switch_cpus.dtb.write_misses               341                       # DTB write misses
system.switch_cpus.idle_fraction                    1                       # Percentage of idle cycles
system.switch_cpus.itb.data_accesses                0                       # DTB accesses
system.switch_cpus.itb.data_acv                     0                       # DTB access violations
system.switch_cpus.itb.data_hits                    0                       # DTB hits
system.switch_cpus.itb.data_misses                  0                       # DTB misses
system.switch_cpus.itb.fetch_accesses        10273803                       # ITB accesses
system.switch_cpus.itb.fetch_acv                    0                       # ITB acv
system.switch_cpus.itb.fetch_hits            10273790                       # ITB hits
system.switch_cpus.itb.fetch_misses                13                       # ITB misses
system.switch_cpus.itb.read_accesses                0                       # DTB read accesses
system.switch_cpus.itb.read_acv                     0                       # DTB read access violations
system.switch_cpus.itb.read_hits                    0                       # DTB read hits
system.switch_cpus.itb.read_misses                  0                       # DTB read misses
system.switch_cpus.itb.write_accesses               0                       # DTB write accesses
system.switch_cpus.itb.write_acv                    0                       # DTB write access violations
system.switch_cpus.itb.write_hits                   0                       # DTB write hits
system.switch_cpus.itb.write_misses                 0                       # DTB write misses
system.switch_cpus.not_idle_fraction                0                       # Percentage of non-idle cycles
system.switch_cpus.numCycles                100081256                       # number of cpu cycles simulated
system.switch_cpus.num_insts                 10000001                       # Number of instructions executed
system.switch_cpus.num_refs                   2837031                       # Number of memory references
system.switch_cpus_1.BPredUnit.BTBCorrect            0                       # Number of correct BTB predictions (this stat may not work properly.
system.switch_cpus_1.BPredUnit.BTBHits        4331235                       # Number of BTB hits
system.switch_cpus_1.BPredUnit.BTBLookups      4517011                       # Number of BTB lookups
system.switch_cpus_1.BPredUnit.RASInCorrect           28                       # Number of incorrect RAS predictions.
system.switch_cpus_1.BPredUnit.condIncorrect        20453                       # Number of conditional branches incorrect
system.switch_cpus_1.BPredUnit.condPredicted      5241874                       # Number of conditional branches predicted
system.switch_cpus_1.BPredUnit.lookups        5388184                       # Number of BP lookups
system.switch_cpus_1.BPredUnit.usedRAS          53829                       # Number of times the RAS was used to get a target.
system.switch_cpus_1.commit.COM:branches      1639812                       # Number of branches committed
system.switch_cpus_1.commit.COM:bw_lim_events        74782                       # number cycles where commit BW limit reached
system.switch_cpus_1.commit.COM:bw_limited            0                       # number of insts not committed due to BW limits
system.switch_cpus_1.commit.COM:committed_per_cycle::samples     41386263                       # Number of insts commited each cycle
system.switch_cpus_1.commit.COM:committed_per_cycle::mean     0.249207                       # Number of insts commited each cycle
system.switch_cpus_1.commit.COM:committed_per_cycle::stdev     0.743966                       # Number of insts commited each cycle
system.switch_cpus_1.commit.COM:committed_per_cycle::underflows            0      0.00%      0.00% # Number of insts commited each cycle
system.switch_cpus_1.commit.COM:committed_per_cycle::0     34967298     84.49%     84.49% # Number of insts commited each cycle
system.switch_cpus_1.commit.COM:committed_per_cycle::1      4009674      9.69%     94.18% # Number of insts commited each cycle
system.switch_cpus_1.commit.COM:committed_per_cycle::2      1906380      4.61%     98.78% # Number of insts commited each cycle
system.switch_cpus_1.commit.COM:committed_per_cycle::3       138308      0.33%     99.12% # Number of insts commited each cycle
system.switch_cpus_1.commit.COM:committed_per_cycle::4        91764      0.22%     99.34% # Number of insts commited each cycle
system.switch_cpus_1.commit.COM:committed_per_cycle::5       108544      0.26%     99.60% # Number of insts commited each cycle
system.switch_cpus_1.commit.COM:committed_per_cycle::6        58233      0.14%     99.74% # Number of insts commited each cycle
system.switch_cpus_1.commit.COM:committed_per_cycle::7        31280      0.08%     99.82% # Number of insts commited each cycle
system.switch_cpus_1.commit.COM:committed_per_cycle::8        74782      0.18%    100.00% # Number of insts commited each cycle
system.switch_cpus_1.commit.COM:committed_per_cycle::overflows            0      0.00%    100.00% # Number of insts commited each cycle
system.switch_cpus_1.commit.COM:committed_per_cycle::min_value            0                       # Number of insts commited each cycle
system.switch_cpus_1.commit.COM:committed_per_cycle::max_value            8                       # Number of insts commited each cycle
system.switch_cpus_1.commit.COM:committed_per_cycle::total     41386263                       # Number of insts commited each cycle
system.switch_cpus_1.commit.COM:count        10313748                       # Number of instructions committed
system.switch_cpus_1.commit.COM:loads         2510912                       # Number of loads committed
system.switch_cpus_1.commit.COM:membars             0                       # Number of memory barriers committed
system.switch_cpus_1.commit.COM:refs          2655008                       # Number of memory references committed
system.switch_cpus_1.commit.COM:swp_count            0                       # Number of s/w prefetches committed
system.switch_cpus_1.commit.branchMispredicts        20118                       # The number of times a branch was mispredicted
system.switch_cpus_1.commit.commitCommittedInsts     10313748                       # The number of committed instructions
system.switch_cpus_1.commit.commitNonSpecStalls            1                       # The number of times commit has been forced to stall to communicate backwards
system.switch_cpus_1.commit.commitSquashedInsts     21891148                       # The number of squashed insts skipped by commit
system.switch_cpus_1.committedInsts          10000000                       # Number of Instructions Simulated
system.switch_cpus_1.committedInsts_total     10000000                       # Number of Instructions Simulated
system.switch_cpus_1.cpi                    10.491612                       # CPI: Cycles Per Instruction
system.switch_cpus_1.cpi_total              10.491612                       # CPI: Total CPI of All Threads
system.switch_cpus_1.decode.DECODE:BlockedCycles     26644351                       # Number of cycles decode is blocked
system.switch_cpus_1.decode.DECODE:BranchMispred          342                       # Number of times decode detected a branch misprediction
system.switch_cpus_1.decode.DECODE:BranchResolved        90098                       # Number of times decode resolved a branch
system.switch_cpus_1.decode.DECODE:DecodedInsts     33947015                       # Number of instructions handled by decode
system.switch_cpus_1.decode.DECODE:IdleCycles      7641614                       # Number of cycles decode is idle
system.switch_cpus_1.decode.DECODE:RunCycles      6510355                       # Number of cycles decode is running
system.switch_cpus_1.decode.DECODE:SquashCycles      2936230                       # Number of cycles decode is squashing
system.switch_cpus_1.decode.DECODE:SquashedInsts         1395                       # Number of squashed instructions handled by decode
system.switch_cpus_1.decode.DECODE:UnblockCycles       589942                       # Number of cycles decode is unblocking
system.switch_cpus_1.dtb.data_accesses        3997961                       # DTB accesses
system.switch_cpus_1.dtb.data_acv                   0                       # DTB access violations
system.switch_cpus_1.dtb.data_hits            3406797                       # DTB hits
system.switch_cpus_1.dtb.data_misses           591164                       # DTB misses
system.switch_cpus_1.dtb.fetch_accesses             0                       # ITB accesses
system.switch_cpus_1.dtb.fetch_acv                  0                       # ITB acv
system.switch_cpus_1.dtb.fetch_hits                 0                       # ITB hits
system.switch_cpus_1.dtb.fetch_misses               0                       # ITB misses
system.switch_cpus_1.dtb.read_accesses        3829996                       # DTB read accesses
system.switch_cpus_1.dtb.read_acv                   0                       # DTB read access violations
system.switch_cpus_1.dtb.read_hits            3239450                       # DTB read hits
system.switch_cpus_1.dtb.read_misses           590546                       # DTB read misses
system.switch_cpus_1.dtb.write_accesses        167965                       # DTB write accesses
system.switch_cpus_1.dtb.write_acv                  0                       # DTB write access violations
system.switch_cpus_1.dtb.write_hits            167347                       # DTB write hits
system.switch_cpus_1.dtb.write_misses             618                       # DTB write misses
system.switch_cpus_1.fetch.Branches           5388184                       # Number of branches that fetch encountered
system.switch_cpus_1.fetch.CacheLines         3247813                       # Number of cache lines fetched
system.switch_cpus_1.fetch.Cycles            10633029                       # Number of cycles fetch has run and was not squashing or blocked
system.switch_cpus_1.fetch.IcacheSquashes         4370                       # Number of outstanding Icache misses that were squashed
system.switch_cpus_1.fetch.Insts             35340262                       # Number of instructions fetch has processed
system.switch_cpus_1.fetch.SquashCycles        316704                       # Number of cycles fetch has spent squashing
system.switch_cpus_1.fetch.branchRate        0.051357                       # Number of branch fetches per cycle
system.switch_cpus_1.fetch.icacheStallCycles      3247813                       # Number of cycles fetch is stalled on an Icache miss
system.switch_cpus_1.fetch.predictedBranches      4385064                       # Number of branches that fetch has predicted taken
system.switch_cpus_1.fetch.rate              0.336843                       # Number of inst fetches per cycle
system.switch_cpus_1.fetch.rateDist::samples     44322493                       # Number of instructions fetched each cycle (Total)
system.switch_cpus_1.fetch.rateDist::mean     0.797344                       # Number of instructions fetched each cycle (Total)
system.switch_cpus_1.fetch.rateDist::stdev     2.014336                       # Number of instructions fetched each cycle (Total)
system.switch_cpus_1.fetch.rateDist::underflows            0      0.00%      0.00% # Number of instructions fetched each cycle (Total)
system.switch_cpus_1.fetch.rateDist::0       36937338     83.34%     83.34% # Number of instructions fetched each cycle (Total)
system.switch_cpus_1.fetch.rateDist::1         935683      2.11%     85.45% # Number of instructions fetched each cycle (Total)
system.switch_cpus_1.fetch.rateDist::2          74523      0.17%     85.62% # Number of instructions fetched each cycle (Total)
system.switch_cpus_1.fetch.rateDist::3          63740      0.14%     85.76% # Number of instructions fetched each cycle (Total)
system.switch_cpus_1.fetch.rateDist::4        4014474      9.06%     94.82% # Number of instructions fetched each cycle (Total)
system.switch_cpus_1.fetch.rateDist::5          56128      0.13%     94.94% # Number of instructions fetched each cycle (Total)
system.switch_cpus_1.fetch.rateDist::6          82042      0.19%     95.13% # Number of instructions fetched each cycle (Total)
system.switch_cpus_1.fetch.rateDist::7          34995      0.08%     95.21% # Number of instructions fetched each cycle (Total)
system.switch_cpus_1.fetch.rateDist::8        2123570      4.79%    100.00% # Number of instructions fetched each cycle (Total)
system.switch_cpus_1.fetch.rateDist::overflows            0      0.00%    100.00% # Number of instructions fetched each cycle (Total)
system.switch_cpus_1.fetch.rateDist::min_value            0                       # Number of instructions fetched each cycle (Total)
system.switch_cpus_1.fetch.rateDist::max_value            8                       # Number of instructions fetched each cycle (Total)
system.switch_cpus_1.fetch.rateDist::total     44322493                       # Number of instructions fetched each cycle (Total)
system.switch_cpus_1.idleCycles              60593628                       # Total number of cycles that the CPU has spent unscheduled due to idling
system.switch_cpus_1.iew.EXEC:branches        2329241                       # Number of branches executed
system.switch_cpus_1.iew.EXEC:nop              362984                       # number of nop insts executed
system.switch_cpus_1.iew.EXEC:rate           0.136071                       # Inst execution rate
system.switch_cpus_1.iew.EXEC:refs            4004336                       # number of memory reference insts executed
system.switch_cpus_1.iew.EXEC:stores           167965                       # Number of stores executed
system.switch_cpus_1.iew.EXEC:swp                   0                       # number of swp insts executed
system.switch_cpus_1.iew.WB:consumers        12071606                       # num instructions consuming a value
system.switch_cpus_1.iew.WB:count            13660970                       # cumulative count of insts written-back
system.switch_cpus_1.iew.WB:fanout           0.654616                       # average fanout of values written-back
system.switch_cpus_1.iew.WB:penalized               0                       # number of instrctions required to write to 'other' IQ
system.switch_cpus_1.iew.WB:penalized_rate            0                       # fraction of instructions written-back that wrote to 'other' IQ
system.switch_cpus_1.iew.WB:producers         7902262                       # num instructions producing a value
system.switch_cpus_1.iew.WB:rate             0.130208                       # insts written-back per cycle
system.switch_cpus_1.iew.WB:sent             14253275                       # cumulative count of insts sent to commit
system.switch_cpus_1.iew.branchMispredicts        22986                       # Number of branch mispredicts detected at execute
system.switch_cpus_1.iew.iewBlockCycles      16999923                       # Number of cycles IEW is blocking
system.switch_cpus_1.iew.iewDispLoadInsts      8756762                       # Number of dispatched load instructions
system.switch_cpus_1.iew.iewDispNonSpecInsts            1                       # Number of dispatched non-speculative instructions
system.switch_cpus_1.iew.iewDispSquashedInsts        19894                       # Number of squashed instructions skipped by dispatch
system.switch_cpus_1.iew.iewDispStoreInsts       184472                       # Number of dispatched store instructions
system.switch_cpus_1.iew.iewDispatchedInsts     32623289                       # Number of instructions dispatched to IQ
system.switch_cpus_1.iew.iewExecLoadInsts      3836371                       # Number of load instructions executed
system.switch_cpus_1.iew.iewExecSquashedInsts        18773                       # Number of squashed instructions skipped in execute
system.switch_cpus_1.iew.iewExecutedInsts     14276024                       # Number of executed instructions
system.switch_cpus_1.iew.iewIQFullEvents       388124                       # Number of times the IQ has become full, causing a stall
system.switch_cpus_1.iew.iewIdleCycles              0                       # Number of cycles IEW is idle
system.switch_cpus_1.iew.iewLSQFullEvents          834                       # Number of times the LSQ has become full, causing a stall
system.switch_cpus_1.iew.iewSquashCycles      2936230                       # Number of cycles IEW is squashing
system.switch_cpus_1.iew.iewUnblockCycles       968061                       # Number of cycles IEW is unblocking
system.switch_cpus_1.iew.lsq.thread.0.blockedLoads            0                       # Number of blocked loads due to partial load-store forwarding
system.switch_cpus_1.iew.lsq.thread.0.cacheBlocked         6987                       # Number of times an access to memory failed due to the cache being blocked
system.switch_cpus_1.iew.lsq.thread.0.forwLoads        32852                       # Number of loads that had data forwarded from stores
system.switch_cpus_1.iew.lsq.thread.0.ignoredResponses          267                       # Number of memory responses ignored because the instruction is squashed
system.switch_cpus_1.iew.lsq.thread.0.invAddrLoads            0                       # Number of loads ignored due to an invalid address
system.switch_cpus_1.iew.lsq.thread.0.invAddrSwpfs            0                       # Number of software prefetches ignored due to an invalid address
system.switch_cpus_1.iew.lsq.thread.0.memOrderViolation          575                       # Number of memory ordering violations
system.switch_cpus_1.iew.lsq.thread.0.rescheduledLoads            0                       # Number of loads that were rescheduled
system.switch_cpus_1.iew.lsq.thread.0.squashedLoads      6245829                       # Number of loads squashed
system.switch_cpus_1.iew.lsq.thread.0.squashedStores        40376                       # Number of stores squashed
system.switch_cpus_1.iew.memOrderViolationEvents          575                       # Number of memory order violations
system.switch_cpus_1.iew.predictedNotTakenIncorrect         7281                       # Number of branches that were predicted not taken incorrectly
system.switch_cpus_1.iew.predictedTakenIncorrect        15705                       # Number of branches that were predicted taken incorrectly
system.switch_cpus_1.ipc                     0.095314                       # IPC: Instructions Per Cycle
system.switch_cpus_1.ipc_total               0.095314                       # IPC: Total IPC of All Threads
system.switch_cpus_1.iq.ISSUE:FU_type_0::No_OpClass            0      0.00%      0.00% # Type of FU issued
system.switch_cpus_1.iq.ISSUE:FU_type_0::IntAlu     10277617     71.90%     71.90% # Type of FU issued
system.switch_cpus_1.iq.ISSUE:FU_type_0::IntMult         1084      0.01%     71.91% # Type of FU issued
system.switch_cpus_1.iq.ISSUE:FU_type_0::IntDiv            0      0.00%     71.91% # Type of FU issued
system.switch_cpus_1.iq.ISSUE:FU_type_0::FloatAdd         4193      0.03%     71.93% # Type of FU issued
system.switch_cpus_1.iq.ISSUE:FU_type_0::FloatCmp            0      0.00%     71.93% # Type of FU issued
system.switch_cpus_1.iq.ISSUE:FU_type_0::FloatCvt         1100      0.01%     71.94% # Type of FU issued
system.switch_cpus_1.iq.ISSUE:FU_type_0::FloatMult          220      0.00%     71.94% # Type of FU issued
system.switch_cpus_1.iq.ISSUE:FU_type_0::FloatDiv            0      0.00%     71.94% # Type of FU issued
system.switch_cpus_1.iq.ISSUE:FU_type_0::FloatSqrt            0      0.00%     71.94% # Type of FU issued
system.switch_cpus_1.iq.ISSUE:FU_type_0::MemRead      3840868     26.87%     98.81% # Type of FU issued
system.switch_cpus_1.iq.ISSUE:FU_type_0::MemWrite       169715      1.19%    100.00% # Type of FU issued
system.switch_cpus_1.iq.ISSUE:FU_type_0::IprAccess            0      0.00%    100.00% # Type of FU issued
system.switch_cpus_1.iq.ISSUE:FU_type_0::InstPrefetch            0      0.00%    100.00% # Type of FU issued
system.switch_cpus_1.iq.ISSUE:FU_type_0::total     14294797                       # Type of FU issued
system.switch_cpus_1.iq.ISSUE:fu_busy_cnt         8942                       # FU busy when requested
system.switch_cpus_1.iq.ISSUE:fu_busy_rate     0.000626                       # FU busy rate (busy events/executed inst)
system.switch_cpus_1.iq.ISSUE:fu_full::No_OpClass            0      0.00%      0.00% # attempts to use FU when none available
system.switch_cpus_1.iq.ISSUE:fu_full::IntAlu           66      0.74%      0.74% # attempts to use FU when none available
system.switch_cpus_1.iq.ISSUE:fu_full::IntMult            0      0.00%      0.74% # attempts to use FU when none available
system.switch_cpus_1.iq.ISSUE:fu_full::IntDiv            0      0.00%      0.74% # attempts to use FU when none available
system.switch_cpus_1.iq.ISSUE:fu_full::FloatAdd            0      0.00%      0.74% # attempts to use FU when none available
system.switch_cpus_1.iq.ISSUE:fu_full::FloatCmp            0      0.00%      0.74% # attempts to use FU when none available
system.switch_cpus_1.iq.ISSUE:fu_full::FloatCvt            0      0.00%      0.74% # attempts to use FU when none available
system.switch_cpus_1.iq.ISSUE:fu_full::FloatMult            0      0.00%      0.74% # attempts to use FU when none available
system.switch_cpus_1.iq.ISSUE:fu_full::FloatDiv            0      0.00%      0.74% # attempts to use FU when none available
system.switch_cpus_1.iq.ISSUE:fu_full::FloatSqrt            0      0.00%      0.74% # attempts to use FU when none available
system.switch_cpus_1.iq.ISSUE:fu_full::MemRead         5040     56.36%     57.10% # attempts to use FU when none available
system.switch_cpus_1.iq.ISSUE:fu_full::MemWrite         3836     42.90%    100.00% # attempts to use FU when none available
system.switch_cpus_1.iq.ISSUE:fu_full::IprAccess            0      0.00%    100.00% # attempts to use FU when none available
system.switch_cpus_1.iq.ISSUE:fu_full::InstPrefetch            0      0.00%    100.00% # attempts to use FU when none available
system.switch_cpus_1.iq.ISSUE:issued_per_cycle::samples     44322493                       # Number of insts issued each cycle
system.switch_cpus_1.iq.ISSUE:issued_per_cycle::mean     0.322518                       # Number of insts issued each cycle
system.switch_cpus_1.iq.ISSUE:issued_per_cycle::stdev     0.711625                       # Number of insts issued each cycle
system.switch_cpus_1.iq.ISSUE:issued_per_cycle::underflows            0      0.00%      0.00% # Number of insts issued each cycle
system.switch_cpus_1.iq.ISSUE:issued_per_cycle::0     34181736     77.12%     77.12% # Number of insts issued each cycle
system.switch_cpus_1.iq.ISSUE:issued_per_cycle::1      7672694     17.31%     94.43% # Number of insts issued each cycle
system.switch_cpus_1.iq.ISSUE:issued_per_cycle::2      1174211      2.65%     97.08% # Number of insts issued each cycle
system.switch_cpus_1.iq.ISSUE:issued_per_cycle::3      1024339      2.31%     99.39% # Number of insts issued each cycle
system.switch_cpus_1.iq.ISSUE:issued_per_cycle::4       167438      0.38%     99.77% # Number of insts issued each cycle
system.switch_cpus_1.iq.ISSUE:issued_per_cycle::5        86476      0.20%     99.96% # Number of insts issued each cycle
system.switch_cpus_1.iq.ISSUE:issued_per_cycle::6        10885      0.02%     99.99% # Number of insts issued each cycle
system.switch_cpus_1.iq.ISSUE:issued_per_cycle::7         4490      0.01%    100.00% # Number of insts issued each cycle
system.switch_cpus_1.iq.ISSUE:issued_per_cycle::8          224      0.00%    100.00% # Number of insts issued each cycle
system.switch_cpus_1.iq.ISSUE:issued_per_cycle::overflows            0      0.00%    100.00% # Number of insts issued each cycle
system.switch_cpus_1.iq.ISSUE:issued_per_cycle::min_value            0                       # Number of insts issued each cycle
system.switch_cpus_1.iq.ISSUE:issued_per_cycle::max_value            8                       # Number of insts issued each cycle
system.switch_cpus_1.iq.ISSUE:issued_per_cycle::total     44322493                       # Number of insts issued each cycle
system.switch_cpus_1.iq.ISSUE:rate           0.136250                       # Inst issue rate
system.switch_cpus_1.iq.iqInstsAdded         32260304                       # Number of instructions added to the IQ (excludes non-spec)
system.switch_cpus_1.iq.iqInstsIssued        14294797                       # Number of instructions issued
system.switch_cpus_1.iq.iqNonSpecInstsAdded            1                       # Number of non-speculative instructions added to the IQ
system.switch_cpus_1.iq.iqSquashedInstsExamined     22241442                       # Number of squashed instructions iterated over during squash; mainly for profiling
system.switch_cpus_1.iq.iqSquashedInstsIssued          492                       # Number of squashed instructions issued
system.switch_cpus_1.iq.iqSquashedOperandsExamined     31590432                       # Number of squashed operands that are examined and possibly removed from graph
system.switch_cpus_1.itb.data_accesses              0                       # DTB accesses
system.switch_cpus_1.itb.data_acv                   0                       # DTB access violations
system.switch_cpus_1.itb.data_hits                  0                       # DTB hits
system.switch_cpus_1.itb.data_misses                0                       # DTB misses
system.switch_cpus_1.itb.fetch_accesses       3247875                       # ITB accesses
system.switch_cpus_1.itb.fetch_acv                  0                       # ITB acv
system.switch_cpus_1.itb.fetch_hits           3247813                       # ITB hits
system.switch_cpus_1.itb.fetch_misses              62                       # ITB misses
system.switch_cpus_1.itb.read_accesses              0                       # DTB read accesses
system.switch_cpus_1.itb.read_acv                   0                       # DTB read access violations
system.switch_cpus_1.itb.read_hits                  0                       # DTB read hits
system.switch_cpus_1.itb.read_misses                0                       # DTB read misses
system.switch_cpus_1.itb.write_accesses             0                       # DTB write accesses
system.switch_cpus_1.itb.write_acv                  0                       # DTB write access violations
system.switch_cpus_1.itb.write_hits                 0                       # DTB write hits
system.switch_cpus_1.itb.write_misses               0                       # DTB write misses
system.switch_cpus_1.memDep0.conflictingLoads        66723                       # Number of conflicting loads.
system.switch_cpus_1.memDep0.conflictingStores         2583                       # Number of conflicting stores.
system.switch_cpus_1.memDep0.insertedLoads      8756762                       # Number of loads inserted to the mem dependence unit.
system.switch_cpus_1.memDep0.insertedStores       184472                       # Number of stores inserted to the mem dependence unit.
system.switch_cpus_1.numCycles              104916121                       # number of cpu cycles simulated
system.switch_cpus_1.rename.RENAME:BlockCycles     22565874                       # Number of cycles rename is blocking
system.switch_cpus_1.rename.RENAME:CommittedMaps      8255878                       # Number of HB maps that are committed
system.switch_cpus_1.rename.RENAME:IQFullEvents      4242334                       # Number of times rename has blocked due to IQ full
system.switch_cpus_1.rename.RENAME:IdleCycles      8246515                       # Number of cycles rename is idle
system.switch_cpus_1.rename.RENAME:LSQFullEvents        27926                       # Number of times rename has blocked due to LSQ full
system.switch_cpus_1.rename.RENAME:ROBFullEvents          970                       # Number of times rename has blocked due to ROB full
system.switch_cpus_1.rename.RENAME:RenameLookups     53224369                       # Number of register rename lookups that rename has made
system.switch_cpus_1.rename.RENAME:RenamedInsts     33043946                       # Number of instructions processed by rename
system.switch_cpus_1.rename.RENAME:RenamedOperands     27492666                       # Number of destination operands rename has renamed
system.switch_cpus_1.rename.RENAME:RunCycles      6521963                       # Number of cycles rename is running
system.switch_cpus_1.rename.RENAME:SquashCycles      2936230                       # Number of cycles rename is squashing
system.switch_cpus_1.rename.RENAME:UnblockCycles      4051899                       # Number of cycles rename is unblocking
system.switch_cpus_1.rename.RENAME:UndoneMaps     19236722                       # Number of HB maps that are undone due to squashing
system.switch_cpus_1.rename.RENAME:serializeStallCycles           11                       # count of cycles rename stalled for serializing inst
system.switch_cpus_1.rename.RENAME:serializingInsts            2                       # count of serializing insts renamed
system.switch_cpus_1.rename.RENAME:skidInsts      7481035                       # count of insts added to the skid buffer
system.switch_cpus_1.rename.RENAME:tempSerializingInsts            2                       # count of temporary serializing insts renamed
system.switch_cpus_1.timesIdled               1058662                       # Number of times that the entire CPU went into an idle state and unscheduled itself

---------- End Simulation Statistics   ----------
