
---------- Begin Simulation Statistics ----------
host_inst_rate                                 407304                       # Simulator instruction rate (inst/s)
host_mem_usage                                 402620                       # Number of bytes of host memory used
host_seconds                                    49.10                       # Real time elapsed on the host
host_tick_rate                              351237047                       # Simulator tick rate (ticks/s)
sim_freq                                 1000000000000                       # Frequency of simulated ticks
sim_insts                                    20000003                       # Number of instructions simulated
sim_seconds                                  0.017247                       # Number of seconds simulated
sim_ticks                                 17247034000                       # Number of ticks simulated
system.cpu.dcache.ReadReq_accesses            3277276                       # number of ReadReq accesses(hits+misses)
system.cpu.dcache.ReadReq_avg_miss_latency 19961.834869                       # average ReadReq miss latency
system.cpu.dcache.ReadReq_avg_mshr_miss_latency 17127.244944                       # average ReadReq mshr miss latency
system.cpu.dcache.ReadReq_hits                3220182                       # number of ReadReq hits
system.cpu.dcache.ReadReq_miss_latency     1139701000                       # number of ReadReq miss cycles
system.cpu.dcache.ReadReq_miss_rate          0.017421                       # miss rate for ReadReq accesses
system.cpu.dcache.ReadReq_misses                57094                       # number of ReadReq misses
system.cpu.dcache.ReadReq_mshr_hits              1468                       # number of ReadReq MSHR hits
system.cpu.dcache.ReadReq_mshr_miss_latency    952703000                       # number of ReadReq MSHR miss cycles
system.cpu.dcache.ReadReq_mshr_miss_rate     0.016973                       # mshr miss rate for ReadReq accesses
system.cpu.dcache.ReadReq_mshr_misses           55625                       # number of ReadReq MSHR misses
system.cpu.dcache.WriteReq_accesses           2972399                       # number of WriteReq accesses(hits+misses)
system.cpu.dcache.WriteReq_avg_miss_latency 20060.400151                       # average WriteReq miss latency
system.cpu.dcache.WriteReq_avg_mshr_miss_latency 16968.737634                       # average WriteReq mshr miss latency
system.cpu.dcache.WriteReq_hits               2969750                       # number of WriteReq hits
system.cpu.dcache.WriteReq_miss_latency      53140000                       # number of WriteReq miss cycles
system.cpu.dcache.WriteReq_miss_rate         0.000891                       # miss rate for WriteReq accesses
system.cpu.dcache.WriteReq_misses                2649                       # number of WriteReq misses
system.cpu.dcache.WriteReq_mshr_hits              122                       # number of WriteReq MSHR hits
system.cpu.dcache.WriteReq_mshr_miss_latency     42880000                       # number of WriteReq MSHR miss cycles
system.cpu.dcache.WriteReq_mshr_miss_rate     0.000850                       # mshr miss rate for WriteReq accesses
system.cpu.dcache.WriteReq_mshr_misses           2527                       # number of WriteReq MSHR misses
system.cpu.dcache.avg_blocked_cycles::no_mshrs     no_value                       # average number of cycles each access was blocked
system.cpu.dcache.avg_blocked_cycles::no_targets 54222.222222                       # average number of cycles each access was blocked
system.cpu.dcache.avg_refs                 106.867620                       # Average number of references to valid blocks.
system.cpu.dcache.blocked::no_mshrs                 0                       # number of cycles access was blocked
system.cpu.dcache.blocked::no_targets               9                       # number of cycles access was blocked
system.cpu.dcache.blocked_cycles::no_mshrs            0                       # number of cycles access was blocked
system.cpu.dcache.blocked_cycles::no_targets       488000                       # number of cycles access was blocked
system.cpu.dcache.cache_copies                      0                       # number of cache copies performed
system.cpu.dcache.demand_accesses             6249675                       # number of demand (read+write) accesses
system.cpu.dcache.demand_avg_miss_latency 19966.205246                       # average overall miss latency
system.cpu.dcache.demand_avg_mshr_miss_latency 17120.356995                       # average overall mshr miss latency
system.cpu.dcache.demand_hits                 6189932                       # number of demand (read+write) hits
system.cpu.dcache.demand_miss_latency      1192841000                       # number of demand (read+write) miss cycles
system.cpu.dcache.demand_miss_rate           0.009559                       # miss rate for demand accesses
system.cpu.dcache.demand_misses                 59743                       # number of demand (read+write) misses
system.cpu.dcache.demand_mshr_hits               1590                       # number of demand (read+write) MSHR hits
system.cpu.dcache.demand_mshr_miss_latency    995583000                       # number of demand (read+write) MSHR miss cycles
system.cpu.dcache.demand_mshr_miss_rate      0.009305                       # mshr miss rate for demand accesses
system.cpu.dcache.demand_mshr_misses            58152                       # number of demand (read+write) MSHR misses
system.cpu.dcache.fast_writes                       0                       # number of fast writes performed
system.cpu.dcache.mshr_cap_events                   0                       # number of times MSHR cap was activated
system.cpu.dcache.no_allocate_misses                0                       # Number of misses that were no-allocate
system.cpu.dcache.occ_%::0                   0.975094                       # Average percentage of cache occupancy
system.cpu.dcache.occ_blocks::0            998.496094                       # Average occupied blocks per context
system.cpu.dcache.overall_accesses            6249675                       # number of overall (read+write) accesses
system.cpu.dcache.overall_avg_miss_latency 19966.205246                       # average overall miss latency
system.cpu.dcache.overall_avg_mshr_miss_latency 17120.356995                       # average overall mshr miss latency
system.cpu.dcache.overall_avg_mshr_uncacheable_latency     no_value                       # average overall mshr uncacheable latency
system.cpu.dcache.overall_hits                6189932                       # number of overall hits
system.cpu.dcache.overall_miss_latency     1192841000                       # number of overall miss cycles
system.cpu.dcache.overall_miss_rate          0.009559                       # miss rate for overall accesses
system.cpu.dcache.overall_misses                59743                       # number of overall misses
system.cpu.dcache.overall_mshr_hits              1590                       # number of overall MSHR hits
system.cpu.dcache.overall_mshr_miss_latency    995583000                       # number of overall MSHR miss cycles
system.cpu.dcache.overall_mshr_miss_rate     0.009305                       # mshr miss rate for overall accesses
system.cpu.dcache.overall_mshr_misses           58152                       # number of overall MSHR misses
system.cpu.dcache.overall_mshr_uncacheable_latency            0                       # number of overall MSHR uncacheable cycles
system.cpu.dcache.overall_mshr_uncacheable_misses            0                       # number of overall MSHR uncacheable misses
system.cpu.dcache.prefetch_accuracy          no_value                       # ratio of good prefetches to total prefetches
system.cpu.dcache.prefetch_hits                     0                       # number of prefetched blocks that were accessed
system.cpu.dcache.replacements                  56900                       # number of replacements
system.cpu.dcache.sampled_refs                  57924                       # Sample count of references to valid blocks.
system.cpu.dcache.soft_prefetch_mshr_full            0                       # number of mshr full events for SW prefetching instrutions
system.cpu.dcache.tagsinuse                998.496094                       # Cycle average of tags in use
system.cpu.dcache.total_refs                  6190200                       # Total number of references to valid blocks.
system.cpu.dcache.warmup_cycle           503792805000                       # Cycle when the warmup percentage was hit.
system.cpu.dcache.writebacks                     2467                       # number of writebacks
system.cpu.dtb.data_accesses                        1                       # DTB accesses
system.cpu.dtb.data_acv                             0                       # DTB access violations
system.cpu.dtb.data_hits                            1                       # DTB hits
system.cpu.dtb.data_misses                          0                       # DTB misses
system.cpu.dtb.fetch_accesses                       0                       # ITB accesses
system.cpu.dtb.fetch_acv                            0                       # ITB acv
system.cpu.dtb.fetch_hits                           0                       # ITB hits
system.cpu.dtb.fetch_misses                         0                       # ITB misses
system.cpu.dtb.read_accesses                        1                       # DTB read accesses
system.cpu.dtb.read_acv                             0                       # DTB read access violations
system.cpu.dtb.read_hits                            1                       # DTB read hits
system.cpu.dtb.read_misses                          0                       # DTB read misses
system.cpu.dtb.write_accesses                       0                       # DTB write accesses
system.cpu.dtb.write_acv                            0                       # DTB write access violations
system.cpu.dtb.write_hits                           0                       # DTB write hits
system.cpu.dtb.write_misses                         0                       # DTB write misses
system.cpu.icache.ReadReq_accesses           11900482                       # number of ReadReq accesses(hits+misses)
system.cpu.icache.ReadReq_avg_miss_latency 48346.153846                       # average ReadReq miss latency
system.cpu.icache.ReadReq_avg_mshr_miss_latency        57250                       # average ReadReq mshr miss latency
system.cpu.icache.ReadReq_hits               11900469                       # number of ReadReq hits
system.cpu.icache.ReadReq_miss_latency         628500                       # number of ReadReq miss cycles
system.cpu.icache.ReadReq_miss_rate          0.000001                       # miss rate for ReadReq accesses
system.cpu.icache.ReadReq_misses                   13                       # number of ReadReq misses
system.cpu.icache.ReadReq_mshr_hits                 4                       # number of ReadReq MSHR hits
system.cpu.icache.ReadReq_mshr_miss_latency       458000                       # number of ReadReq MSHR miss cycles
system.cpu.icache.ReadReq_mshr_miss_rate     0.000001                       # mshr miss rate for ReadReq accesses
system.cpu.icache.ReadReq_mshr_misses               8                       # number of ReadReq MSHR misses
system.cpu.icache.avg_blocked_cycles::no_mshrs     no_value                       # average number of cycles each access was blocked
system.cpu.icache.avg_blocked_cycles::no_targets        22000                       # average number of cycles each access was blocked
system.cpu.icache.avg_refs               1322274.333333                       # Average number of references to valid blocks.
system.cpu.icache.blocked::no_mshrs                 0                       # number of cycles access was blocked
system.cpu.icache.blocked::no_targets               1                       # number of cycles access was blocked
system.cpu.icache.blocked_cycles::no_mshrs            0                       # number of cycles access was blocked
system.cpu.icache.blocked_cycles::no_targets        22000                       # number of cycles access was blocked
system.cpu.icache.cache_copies                      0                       # number of cache copies performed
system.cpu.icache.demand_accesses            11900482                       # number of demand (read+write) accesses
system.cpu.icache.demand_avg_miss_latency 48346.153846                       # average overall miss latency
system.cpu.icache.demand_avg_mshr_miss_latency        57250                       # average overall mshr miss latency
system.cpu.icache.demand_hits                11900469                       # number of demand (read+write) hits
system.cpu.icache.demand_miss_latency          628500                       # number of demand (read+write) miss cycles
system.cpu.icache.demand_miss_rate           0.000001                       # miss rate for demand accesses
system.cpu.icache.demand_misses                    13                       # number of demand (read+write) misses
system.cpu.icache.demand_mshr_hits                  4                       # number of demand (read+write) MSHR hits
system.cpu.icache.demand_mshr_miss_latency       458000                       # number of demand (read+write) MSHR miss cycles
system.cpu.icache.demand_mshr_miss_rate      0.000001                       # mshr miss rate for demand accesses
system.cpu.icache.demand_mshr_misses                8                       # number of demand (read+write) MSHR misses
system.cpu.icache.fast_writes                       0                       # number of fast writes performed
system.cpu.icache.mshr_cap_events                   0                       # number of times MSHR cap was activated
system.cpu.icache.no_allocate_misses                0                       # Number of misses that were no-allocate
system.cpu.icache.occ_%::0                   0.012824                       # Average percentage of cache occupancy
system.cpu.icache.occ_blocks::0              6.565722                       # Average occupied blocks per context
system.cpu.icache.overall_accesses           11900482                       # number of overall (read+write) accesses
system.cpu.icache.overall_avg_miss_latency 48346.153846                       # average overall miss latency
system.cpu.icache.overall_avg_mshr_miss_latency        57250                       # average overall mshr miss latency
system.cpu.icache.overall_avg_mshr_uncacheable_latency     no_value                       # average overall mshr uncacheable latency
system.cpu.icache.overall_hits               11900469                       # number of overall hits
system.cpu.icache.overall_miss_latency         628500                       # number of overall miss cycles
system.cpu.icache.overall_miss_rate          0.000001                       # miss rate for overall accesses
system.cpu.icache.overall_misses                   13                       # number of overall misses
system.cpu.icache.overall_mshr_hits                 4                       # number of overall MSHR hits
system.cpu.icache.overall_mshr_miss_latency       458000                       # number of overall MSHR miss cycles
system.cpu.icache.overall_mshr_miss_rate     0.000001                       # mshr miss rate for overall accesses
system.cpu.icache.overall_mshr_misses               8                       # number of overall MSHR misses
system.cpu.icache.overall_mshr_uncacheable_latency            0                       # number of overall MSHR uncacheable cycles
system.cpu.icache.overall_mshr_uncacheable_misses            0                       # number of overall MSHR uncacheable misses
system.cpu.icache.prefetch_accuracy          no_value                       # ratio of good prefetches to total prefetches
system.cpu.icache.prefetch_hits                     0                       # number of prefetched blocks that were accessed
system.cpu.icache.replacements                      0                       # number of replacements
system.cpu.icache.sampled_refs                      9                       # Sample count of references to valid blocks.
system.cpu.icache.soft_prefetch_mshr_full            0                       # number of mshr full events for SW prefetching instrutions
system.cpu.icache.tagsinuse                  6.565722                       # Cycle average of tags in use
system.cpu.icache.total_refs                 11900469                       # Total number of references to valid blocks.
system.cpu.icache.warmup_cycle                      0                       # Cycle when the warmup percentage was hit.
system.cpu.icache.writebacks                        0                       # number of writebacks
system.cpu.idle_fraction                            0                       # Percentage of idle cycles
system.cpu.itb.data_accesses                        0                       # DTB accesses
system.cpu.itb.data_acv                             0                       # DTB access violations
system.cpu.itb.data_hits                            0                       # DTB hits
system.cpu.itb.data_misses                          0                       # DTB misses
system.cpu.itb.fetch_accesses                       2                       # ITB accesses
system.cpu.itb.fetch_acv                            0                       # ITB acv
system.cpu.itb.fetch_hits                           2                       # ITB hits
system.cpu.itb.fetch_misses                         0                       # ITB misses
system.cpu.itb.read_accesses                        0                       # DTB read accesses
system.cpu.itb.read_acv                             0                       # DTB read access violations
system.cpu.itb.read_hits                            0                       # DTB read hits
system.cpu.itb.read_misses                          0                       # DTB read misses
system.cpu.itb.write_accesses                       0                       # DTB write accesses
system.cpu.itb.write_acv                            0                       # DTB write access violations
system.cpu.itb.write_hits                           0                       # DTB write hits
system.cpu.itb.write_misses                         0                       # DTB write misses
system.cpu.not_idle_fraction                        1                       # Percentage of non-idle cycles
system.cpu.numCycles                                2                       # number of cpu cycles simulated
system.cpu.num_insts                                2                       # Number of instructions executed
system.cpu.num_refs                                 1                       # Number of memory references
system.cpu.workload.PROG:num_syscalls               0                       # Number of system calls
system.l2.HardPFReq_avg_mshr_miss_latency 33085.513771                       # average HardPFReq mshr miss latency
system.l2.HardPFReq_mshr_miss_latency       229448038                       # number of HardPFReq MSHR miss cycles
system.l2.HardPFReq_mshr_miss_rate                inf                       # mshr miss rate for HardPFReq accesses
system.l2.HardPFReq_mshr_misses                  6935                       # number of HardPFReq MSHR misses
system.l2.ReadExReq_accesses                     2298                       # number of ReadExReq accesses(hits+misses)
system.l2.ReadExReq_avg_miss_latency     56198.924731                       # average ReadExReq miss latency
system.l2.ReadExReq_avg_mshr_miss_latency 40268.817204                       # average ReadExReq mshr miss latency
system.l2.ReadExReq_hits                         2205                       # number of ReadExReq hits
system.l2.ReadExReq_miss_latency              5226500                       # number of ReadExReq miss cycles
system.l2.ReadExReq_miss_rate                0.040470                       # miss rate for ReadExReq accesses
system.l2.ReadExReq_misses                         93                       # number of ReadExReq misses
system.l2.ReadExReq_mshr_miss_latency         3745000                       # number of ReadExReq MSHR miss cycles
system.l2.ReadExReq_mshr_miss_rate           0.040470                       # mshr miss rate for ReadExReq accesses
system.l2.ReadExReq_mshr_misses                    93                       # number of ReadExReq MSHR misses
system.l2.ReadReq_accesses                      55635                       # number of ReadReq accesses(hits+misses)
system.l2.ReadReq_avg_miss_latency       56208.634566                       # average ReadReq miss latency
system.l2.ReadReq_avg_mshr_miss_latency  40243.894119                       # average ReadReq mshr miss latency
system.l2.ReadReq_hits                          48304                       # number of ReadReq hits
system.l2.ReadReq_miss_latency              412065500                       # number of ReadReq miss cycles
system.l2.ReadReq_miss_rate                  0.131770                       # miss rate for ReadReq accesses
system.l2.ReadReq_misses                         7331                       # number of ReadReq misses
system.l2.ReadReq_mshr_miss_latency         294947500                       # number of ReadReq MSHR miss cycles
system.l2.ReadReq_mshr_miss_rate             0.131734                       # mshr miss rate for ReadReq accesses
system.l2.ReadReq_mshr_misses                    7329                       # number of ReadReq MSHR misses
system.l2.UpgradeReq_accesses                     229                       # number of UpgradeReq accesses(hits+misses)
system.l2.UpgradeReq_avg_miss_latency    56537.117904                       # average UpgradeReq miss latency
system.l2.UpgradeReq_avg_mshr_miss_latency 40517.467249                       # average UpgradeReq mshr miss latency
system.l2.UpgradeReq_miss_latency            12947000                       # number of UpgradeReq miss cycles
system.l2.UpgradeReq_miss_rate                      1                       # miss rate for UpgradeReq accesses
system.l2.UpgradeReq_misses                       229                       # number of UpgradeReq misses
system.l2.UpgradeReq_mshr_miss_latency        9278500                       # number of UpgradeReq MSHR miss cycles
system.l2.UpgradeReq_mshr_miss_rate                 1                       # mshr miss rate for UpgradeReq accesses
system.l2.UpgradeReq_mshr_misses                  229                       # number of UpgradeReq MSHR misses
system.l2.Writeback_accesses                     2467                       # number of Writeback accesses(hits+misses)
system.l2.Writeback_hits                         2467                       # number of Writeback hits
system.l2.avg_blocked_cycles::no_mshrs       no_value                       # average number of cycles each access was blocked
system.l2.avg_blocked_cycles::no_targets     no_value                       # average number of cycles each access was blocked
system.l2.avg_refs                           3.401639                       # Average number of references to valid blocks.
system.l2.blocked::no_mshrs                         0                       # number of cycles access was blocked
system.l2.blocked::no_targets                       0                       # number of cycles access was blocked
system.l2.blocked_cycles::no_mshrs                  0                       # number of cycles access was blocked
system.l2.blocked_cycles::no_targets                0                       # number of cycles access was blocked
system.l2.cache_copies                              0                       # number of cache copies performed
system.l2.demand_accesses                       57933                       # number of demand (read+write) accesses
system.l2.demand_avg_miss_latency        56208.512931                       # average overall miss latency
system.l2.demand_avg_mshr_miss_latency   40244.206413                       # average overall mshr miss latency
system.l2.demand_hits                           50509                       # number of demand (read+write) hits
system.l2.demand_miss_latency               417292000                       # number of demand (read+write) miss cycles
system.l2.demand_miss_rate                   0.128148                       # miss rate for demand accesses
system.l2.demand_misses                          7424                       # number of demand (read+write) misses
system.l2.demand_mshr_hits                          0                       # number of demand (read+write) MSHR hits
system.l2.demand_mshr_miss_latency          298692500                       # number of demand (read+write) MSHR miss cycles
system.l2.demand_mshr_miss_rate              0.128114                       # mshr miss rate for demand accesses
system.l2.demand_mshr_misses                     7422                       # number of demand (read+write) MSHR misses
system.l2.fast_writes                               0                       # number of fast writes performed
system.l2.mshr_cap_events                           0                       # number of times MSHR cap was activated
system.l2.no_allocate_misses                        0                       # Number of misses that were no-allocate
system.l2.occ_%::0                           0.426381                       # Average percentage of cache occupancy
system.l2.occ_%::1                           0.045264                       # Average percentage of cache occupancy
system.l2.occ_blocks::0                   6985.830692                       # Average occupied blocks per context
system.l2.occ_blocks::1                    741.600454                       # Average occupied blocks per context
system.l2.overall_accesses                      57933                       # number of overall (read+write) accesses
system.l2.overall_avg_miss_latency       56208.512931                       # average overall miss latency
system.l2.overall_avg_mshr_miss_latency  36786.274152                       # average overall mshr miss latency
system.l2.overall_avg_mshr_uncacheable_latency     no_value                       # average overall mshr uncacheable latency
system.l2.overall_hits                          50509                       # number of overall hits
system.l2.overall_miss_latency              417292000                       # number of overall miss cycles
system.l2.overall_miss_rate                  0.128148                       # miss rate for overall accesses
system.l2.overall_misses                         7424                       # number of overall misses
system.l2.overall_mshr_hits                         0                       # number of overall MSHR hits
system.l2.overall_mshr_miss_latency         528140538                       # number of overall MSHR miss cycles
system.l2.overall_mshr_miss_rate             0.247821                       # mshr miss rate for overall accesses
system.l2.overall_mshr_misses                   14357                       # number of overall MSHR misses
system.l2.overall_mshr_uncacheable_latency            0                       # number of overall MSHR uncacheable cycles
system.l2.overall_mshr_uncacheable_misses            0                       # number of overall MSHR uncacheable misses
system.l2.prefetch_accuracy                  0.668926                       # ratio of good prefetches to total prefetches
system.l2.prefetch_hits                          4639                       # number of prefetched blocks that were accessed
system.l2.prefetcher.num_hwpf_already_in_prefetcher           72                       # number of hwpf that were already in the prefetch queue
system.l2.prefetcher.num_hwpf_evicted               0                       # number of hwpf removed due to no buffer left
system.l2.prefetcher.num_hwpf_identified         7007                       # number of hwpf identified
system.l2.prefetcher.num_hwpf_issued             6935                       # number of hwpf issued
system.l2.prefetcher.num_hwpf_removed_MSHR_hit            0                       # number of hwpf removed because MSHR allocated
system.l2.prefetcher.num_hwpf_span_page             0                       # number of hwpf spanning a virtual page
system.l2.prefetcher.num_hwpf_squashed_from_miss            0                       # number of hwpf that got squashed due to a miss aborting calculation time
system.l2.replacements                            913                       # number of replacements
system.l2.sampled_refs                          14274                       # Sample count of references to valid blocks.
system.l2.soft_prefetch_mshr_full                   0                       # number of mshr full events for SW prefetching instrutions
system.l2.tagsinuse                       7727.431146                       # Cycle average of tags in use
system.l2.total_refs                            48555                       # Total number of references to valid blocks.
system.l2.warmup_cycle                              0                       # Cycle when the warmup percentage was hit.
system.l2.writebacks                              190                       # number of writebacks
system.switch_cpus.dtb.data_accesses          3032396                       # DTB accesses
system.switch_cpus.dtb.data_acv                     0                       # DTB access violations
system.switch_cpus.dtb.data_hits              3023144                       # DTB hits
system.switch_cpus.dtb.data_misses               9252                       # DTB misses
system.switch_cpus.dtb.fetch_accesses               0                       # ITB accesses
system.switch_cpus.dtb.fetch_acv                    0                       # ITB acv
system.switch_cpus.dtb.fetch_hits                   0                       # ITB hits
system.switch_cpus.dtb.fetch_misses                 0                       # ITB misses
system.switch_cpus.dtb.read_accesses          1557076                       # DTB read accesses
system.switch_cpus.dtb.read_acv                     0                       # DTB read access violations
system.switch_cpus.dtb.read_hits              1547977                       # DTB read hits
system.switch_cpus.dtb.read_misses               9099                       # DTB read misses
system.switch_cpus.dtb.write_accesses         1475320                       # DTB write accesses
system.switch_cpus.dtb.write_acv                    0                       # DTB write access violations
system.switch_cpus.dtb.write_hits             1475167                       # DTB write hits
system.switch_cpus.dtb.write_misses               153                       # DTB write misses
system.switch_cpus.idle_fraction                    1                       # Percentage of idle cycles
system.switch_cpus.itb.data_accesses                0                       # DTB accesses
system.switch_cpus.itb.data_acv                     0                       # DTB access violations
system.switch_cpus.itb.data_hits                    0                       # DTB hits
system.switch_cpus.itb.data_misses                  0                       # DTB misses
system.switch_cpus.itb.fetch_accesses        10009255                       # ITB accesses
system.switch_cpus.itb.fetch_acv                    0                       # ITB acv
system.switch_cpus.itb.fetch_hits            10009254                       # ITB hits
system.switch_cpus.itb.fetch_misses                 1                       # ITB misses
system.switch_cpus.itb.read_accesses                0                       # DTB read accesses
system.switch_cpus.itb.read_acv                     0                       # DTB read access violations
system.switch_cpus.itb.read_hits                    0                       # DTB read hits
system.switch_cpus.itb.read_misses                  0                       # DTB read misses
system.switch_cpus.itb.write_accesses               0                       # DTB write accesses
system.switch_cpus.itb.write_acv                    0                       # DTB write access violations
system.switch_cpus.itb.write_hits                   0                       # DTB write hits
system.switch_cpus.itb.write_misses                 0                       # DTB write misses
system.switch_cpus.not_idle_fraction                0                       # Percentage of non-idle cycles
system.switch_cpus.numCycles                 27449993                       # number of cpu cycles simulated
system.switch_cpus.num_insts                 10000001                       # Number of instructions executed
system.switch_cpus.num_refs                   3032396                       # Number of memory references
system.switch_cpus_1.BPredUnit.BTBCorrect            0                       # Number of correct BTB predictions (this stat may not work properly.
system.switch_cpus_1.BPredUnit.BTBHits        1690362                       # Number of BTB hits
system.switch_cpus_1.BPredUnit.BTBLookups      1697038                       # Number of BTB lookups
system.switch_cpus_1.BPredUnit.RASInCorrect            0                       # Number of incorrect RAS predictions.
system.switch_cpus_1.BPredUnit.condIncorrect        77450                       # Number of conditional branches incorrect
system.switch_cpus_1.BPredUnit.condPredicted      1955392                       # Number of conditional branches predicted
system.switch_cpus_1.BPredUnit.lookups        1966186                       # Number of BP lookups
system.switch_cpus_1.BPredUnit.usedRAS              0                       # Number of times the RAS was used to get a target.
system.switch_cpus_1.commit.COM:branches      1540870                       # Number of branches committed
system.switch_cpus_1.commit.COM:bw_lim_events        62476                       # number cycles where commit BW limit reached
system.switch_cpus_1.commit.COM:bw_limited            0                       # number of insts not committed due to BW limits
system.switch_cpus_1.commit.COM:committed_per_cycle::samples      6738298                       # Number of insts commited each cycle
system.switch_cpus_1.commit.COM:committed_per_cycle::mean     1.507084                       # Number of insts commited each cycle
system.switch_cpus_1.commit.COM:committed_per_cycle::stdev     1.789902                       # Number of insts commited each cycle
system.switch_cpus_1.commit.COM:committed_per_cycle::underflows            0      0.00%      0.00% # Number of insts commited each cycle
system.switch_cpus_1.commit.COM:committed_per_cycle::0      2206152     32.74%     32.74% # Number of insts commited each cycle
system.switch_cpus_1.commit.COM:committed_per_cycle::1      2895267     42.97%     75.71% # Number of insts commited each cycle
system.switch_cpus_1.commit.COM:committed_per_cycle::2        85032      1.26%     76.97% # Number of insts commited each cycle
system.switch_cpus_1.commit.COM:committed_per_cycle::3        59909      0.89%     77.86% # Number of insts commited each cycle
system.switch_cpus_1.commit.COM:committed_per_cycle::4       743246     11.03%     88.89% # Number of insts commited each cycle
system.switch_cpus_1.commit.COM:committed_per_cycle::5       681642     10.12%     99.00% # Number of insts commited each cycle
system.switch_cpus_1.commit.COM:committed_per_cycle::6         2894      0.04%     99.05% # Number of insts commited each cycle
system.switch_cpus_1.commit.COM:committed_per_cycle::7         1680      0.02%     99.07% # Number of insts commited each cycle
system.switch_cpus_1.commit.COM:committed_per_cycle::8        62476      0.93%    100.00% # Number of insts commited each cycle
system.switch_cpus_1.commit.COM:committed_per_cycle::overflows            0      0.00%    100.00% # Number of insts commited each cycle
system.switch_cpus_1.commit.COM:committed_per_cycle::min_value            0                       # Number of insts commited each cycle
system.switch_cpus_1.commit.COM:committed_per_cycle::max_value            8                       # Number of insts commited each cycle
system.switch_cpus_1.commit.COM:committed_per_cycle::total      6738298                       # Number of insts commited each cycle
system.switch_cpus_1.commit.COM:count        10155184                       # Number of instructions committed
system.switch_cpus_1.commit.COM:loads         1572087                       # Number of loads committed
system.switch_cpus_1.commit.COM:membars             0                       # Number of memory barriers committed
system.switch_cpus_1.commit.COM:refs          3069319                       # Number of memory references committed
system.switch_cpus_1.commit.COM:swp_count            0                       # Number of s/w prefetches committed
system.switch_cpus_1.commit.branchMispredicts        77446                       # The number of times a branch was mispredicted
system.switch_cpus_1.commit.commitCommittedInsts     10155184                       # The number of committed instructions
system.switch_cpus_1.commit.commitSquashedInsts      1987520                       # The number of squashed insts skipped by commit
system.switch_cpus_1.committedInsts          10000000                       # Number of Instructions Simulated
system.switch_cpus_1.committedInsts_total     10000000                       # Number of Instructions Simulated
system.switch_cpus_1.cpi                     0.704407                       # CPI: Cycles Per Instruction
system.switch_cpus_1.cpi_total               0.704407                       # CPI: Total CPI of All Threads
system.switch_cpus_1.decode.DECODE:BlockedCycles        15315                       # Number of cycles decode is blocked
system.switch_cpus_1.decode.DECODE:BranchMispred           23                       # Number of times decode detected a branch misprediction
system.switch_cpus_1.decode.DECODE:BranchResolved        10616                       # Number of times decode resolved a branch
system.switch_cpus_1.decode.DECODE:DecodedInsts     13062976                       # Number of instructions handled by decode
system.switch_cpus_1.decode.DECODE:IdleCycles      3777402                       # Number of cycles decode is idle
system.switch_cpus_1.decode.DECODE:RunCycles      2944351                       # Number of cycles decode is running
system.switch_cpus_1.decode.DECODE:SquashCycles       303193                       # Number of cycles decode is squashing
system.switch_cpus_1.decode.DECODE:SquashedInsts            9                       # Number of squashed instructions handled by decode
system.switch_cpus_1.decode.DECODE:UnblockCycles         1229                       # Number of cycles decode is unblocking
system.switch_cpus_1.dtb.data_accesses        3537149                       # DTB accesses
system.switch_cpus_1.dtb.data_acv                   0                       # DTB access violations
system.switch_cpus_1.dtb.data_hits            3518553                       # DTB hits
system.switch_cpus_1.dtb.data_misses            18596                       # DTB misses
system.switch_cpus_1.dtb.fetch_accesses             0                       # ITB accesses
system.switch_cpus_1.dtb.fetch_acv                  0                       # ITB acv
system.switch_cpus_1.dtb.fetch_hits                 0                       # ITB hits
system.switch_cpus_1.dtb.fetch_misses               0                       # ITB misses
system.switch_cpus_1.dtb.read_accesses        1826980                       # DTB read accesses
system.switch_cpus_1.dtb.read_acv                   0                       # DTB read access violations
system.switch_cpus_1.dtb.read_hits            1809218                       # DTB read hits
system.switch_cpus_1.dtb.read_misses            17762                       # DTB read misses
system.switch_cpus_1.dtb.write_accesses       1710169                       # DTB write accesses
system.switch_cpus_1.dtb.write_acv                  0                       # DTB write access violations
system.switch_cpus_1.dtb.write_hits           1709335                       # DTB write hits
system.switch_cpus_1.dtb.write_misses             834                       # DTB write misses
system.switch_cpus_1.fetch.Branches           1966186                       # Number of branches that fetch encountered
system.switch_cpus_1.fetch.CacheLines         1891226                       # Number of cache lines fetched
system.switch_cpus_1.fetch.Cycles             4860250                       # Number of cycles fetch has run and was not squashing or blocked
system.switch_cpus_1.fetch.IcacheSquashes        30335                       # Number of outstanding Icache misses that were squashed
system.switch_cpus_1.fetch.Insts             13201168                       # Number of instructions fetch has processed
system.switch_cpus_1.fetch.SquashCycles         92982                       # Number of cycles fetch has spent squashing
system.switch_cpus_1.fetch.branchRate        0.279126                       # Number of branch fetches per cycle
system.switch_cpus_1.fetch.icacheStallCycles      1891226                       # Number of cycles fetch is stalled on an Icache miss
system.switch_cpus_1.fetch.predictedBranches      1690362                       # Number of branches that fetch has predicted taken
system.switch_cpus_1.fetch.rate              1.874081                       # Number of inst fetches per cycle
system.switch_cpus_1.fetch.rateDist::samples      7041491                       # Number of instructions fetched each cycle (Total)
system.switch_cpus_1.fetch.rateDist::mean     1.874769                       # Number of instructions fetched each cycle (Total)
system.switch_cpus_1.fetch.rateDist::stdev     2.786517                       # Number of instructions fetched each cycle (Total)
system.switch_cpus_1.fetch.rateDist::underflows            0      0.00%      0.00% # Number of instructions fetched each cycle (Total)
system.switch_cpus_1.fetch.rateDist::0        4072467     57.84%     57.84% # Number of instructions fetched each cycle (Total)
system.switch_cpus_1.fetch.rateDist::1         883552     12.55%     70.38% # Number of instructions fetched each cycle (Total)
system.switch_cpus_1.fetch.rateDist::2          59763      0.85%     71.23% # Number of instructions fetched each cycle (Total)
system.switch_cpus_1.fetch.rateDist::3          41611      0.59%     71.82% # Number of instructions fetched each cycle (Total)
system.switch_cpus_1.fetch.rateDist::4         341273      4.85%     76.67% # Number of instructions fetched each cycle (Total)
system.switch_cpus_1.fetch.rateDist::5         633704      9.00%     85.67% # Number of instructions fetched each cycle (Total)
system.switch_cpus_1.fetch.rateDist::6          20035      0.28%     85.95% # Number of instructions fetched each cycle (Total)
system.switch_cpus_1.fetch.rateDist::7         493253      7.00%     92.96% # Number of instructions fetched each cycle (Total)
system.switch_cpus_1.fetch.rateDist::8         495833      7.04%    100.00% # Number of instructions fetched each cycle (Total)
system.switch_cpus_1.fetch.rateDist::overflows            0      0.00%    100.00% # Number of instructions fetched each cycle (Total)
system.switch_cpus_1.fetch.rateDist::min_value            0                       # Number of instructions fetched each cycle (Total)
system.switch_cpus_1.fetch.rateDist::max_value            8                       # Number of instructions fetched each cycle (Total)
system.switch_cpus_1.fetch.rateDist::total      7041491                       # Number of instructions fetched each cycle (Total)
system.switch_cpus_1.idleCycles                  2583                       # Total number of cycles that the CPU has spent unscheduled due to idling
system.switch_cpus_1.iew.EXEC:branches        1728590                       # Number of branches executed
system.switch_cpus_1.iew.EXEC:nop              394542                       # number of nop insts executed
system.switch_cpus_1.iew.EXEC:rate           1.628903                       # Inst execution rate
system.switch_cpus_1.iew.EXEC:refs            3537149                       # number of memory reference insts executed
system.switch_cpus_1.iew.EXEC:stores          1710169                       # Number of stores executed
system.switch_cpus_1.iew.EXEC:swp                   0                       # number of swp insts executed
system.switch_cpus_1.iew.WB:consumers         9157004                       # num instructions consuming a value
system.switch_cpus_1.iew.WB:count            11410380                       # cumulative count of insts written-back
system.switch_cpus_1.iew.WB:fanout           0.744122                       # average fanout of values written-back
system.switch_cpus_1.iew.WB:penalized               0                       # number of instrctions required to write to 'other' IQ
system.switch_cpus_1.iew.WB:penalized_rate            0                       # fraction of instructions written-back that wrote to 'other' IQ
system.switch_cpus_1.iew.WB:producers         6813931                       # num instructions producing a value
system.switch_cpus_1.iew.WB:rate             1.619855                       # insts written-back per cycle
system.switch_cpus_1.iew.WB:sent             11432609                       # cumulative count of insts sent to commit
system.switch_cpus_1.iew.branchMispredicts        80397                       # Number of branch mispredicts detected at execute
system.switch_cpus_1.iew.iewBlockCycles           393                       # Number of cycles IEW is blocking
system.switch_cpus_1.iew.iewDispLoadInsts      1907043                       # Number of dispatched load instructions
system.switch_cpus_1.iew.iewDispNonSpecInsts            0                       # Number of dispatched non-speculative instructions
system.switch_cpus_1.iew.iewDispSquashedInsts       144655                       # Number of squashed instructions skipped by dispatch
system.switch_cpus_1.iew.iewDispStoreInsts      1790795                       # Number of dispatched store instructions
system.switch_cpus_1.iew.iewDispatchedInsts     12475115                       # Number of instructions dispatched to IQ
system.switch_cpus_1.iew.iewExecLoadInsts      1826980                       # Number of load instructions executed
system.switch_cpus_1.iew.iewExecSquashedInsts       142802                       # Number of squashed instructions skipped in execute
system.switch_cpus_1.iew.iewExecutedInsts     11474110                       # Number of executed instructions
system.switch_cpus_1.iew.iewIQFullEvents           20                       # Number of times the IQ has become full, causing a stall
system.switch_cpus_1.iew.iewIdleCycles              0                       # Number of cycles IEW is idle
system.switch_cpus_1.iew.iewLSQFullEvents            0                       # Number of times the LSQ has become full, causing a stall
system.switch_cpus_1.iew.iewSquashCycles       303193                       # Number of cycles IEW is squashing
system.switch_cpus_1.iew.iewUnblockCycles           24                       # Number of cycles IEW is unblocking
system.switch_cpus_1.iew.lsq.thread.0.blockedLoads            0                       # Number of blocked loads due to partial load-store forwarding
system.switch_cpus_1.iew.lsq.thread.0.cacheBlocked            9                       # Number of times an access to memory failed due to the cache being blocked
system.switch_cpus_1.iew.lsq.thread.0.forwLoads        79920                       # Number of loads that had data forwarded from stores
system.switch_cpus_1.iew.lsq.thread.0.ignoredResponses         3872                       # Number of memory responses ignored because the instruction is squashed
system.switch_cpus_1.iew.lsq.thread.0.invAddrLoads            0                       # Number of loads ignored due to an invalid address
system.switch_cpus_1.iew.lsq.thread.0.invAddrSwpfs            0                       # Number of software prefetches ignored due to an invalid address
system.switch_cpus_1.iew.lsq.thread.0.memOrderViolation         5430                       # Number of memory ordering violations
system.switch_cpus_1.iew.lsq.thread.0.rescheduledLoads            0                       # Number of loads that were rescheduled
system.switch_cpus_1.iew.lsq.thread.0.squashedLoads       334954                       # Number of loads squashed
system.switch_cpus_1.iew.lsq.thread.0.squashedStores       293561                       # Number of stores squashed
system.switch_cpus_1.iew.memOrderViolationEvents         5430                       # Number of memory order violations
system.switch_cpus_1.iew.predictedNotTakenIncorrect         8885                       # Number of branches that were predicted not taken incorrectly
system.switch_cpus_1.iew.predictedTakenIncorrect        71512                       # Number of branches that were predicted taken incorrectly
system.switch_cpus_1.ipc                     1.419633                       # IPC: Instructions Per Cycle
system.switch_cpus_1.ipc_total               1.419633                       # IPC: Total IPC of All Threads
system.switch_cpus_1.iq.ISSUE:FU_type_0::No_OpClass            0      0.00%      0.00% # Type of FU issued
system.switch_cpus_1.iq.ISSUE:FU_type_0::IntAlu      8035400     69.17%     69.17% # Type of FU issued
system.switch_cpus_1.iq.ISSUE:FU_type_0::IntMult            0      0.00%     69.17% # Type of FU issued
system.switch_cpus_1.iq.ISSUE:FU_type_0::IntDiv            0      0.00%     69.17% # Type of FU issued
system.switch_cpus_1.iq.ISSUE:FU_type_0::FloatAdd            0      0.00%     69.17% # Type of FU issued
system.switch_cpus_1.iq.ISSUE:FU_type_0::FloatCmp            0      0.00%     69.17% # Type of FU issued
system.switch_cpus_1.iq.ISSUE:FU_type_0::FloatCvt            0      0.00%     69.17% # Type of FU issued
system.switch_cpus_1.iq.ISSUE:FU_type_0::FloatMult            0      0.00%     69.17% # Type of FU issued
system.switch_cpus_1.iq.ISSUE:FU_type_0::FloatDiv            0      0.00%     69.17% # Type of FU issued
system.switch_cpus_1.iq.ISSUE:FU_type_0::FloatSqrt            0      0.00%     69.17% # Type of FU issued
system.switch_cpus_1.iq.ISSUE:FU_type_0::MemRead      1843013     15.86%     85.03% # Type of FU issued
system.switch_cpus_1.iq.ISSUE:FU_type_0::MemWrite      1738500     14.97%    100.00% # Type of FU issued
system.switch_cpus_1.iq.ISSUE:FU_type_0::IprAccess            0      0.00%    100.00% # Type of FU issued
system.switch_cpus_1.iq.ISSUE:FU_type_0::InstPrefetch            0      0.00%    100.00% # Type of FU issued
system.switch_cpus_1.iq.ISSUE:FU_type_0::total     11616913                       # Type of FU issued
system.switch_cpus_1.iq.ISSUE:fu_busy_cnt         7901                       # FU busy when requested
system.switch_cpus_1.iq.ISSUE:fu_busy_rate     0.000680                       # FU busy rate (busy events/executed inst)
system.switch_cpus_1.iq.ISSUE:fu_full::No_OpClass            0      0.00%      0.00% # attempts to use FU when none available
system.switch_cpus_1.iq.ISSUE:fu_full::IntAlu         7900     99.99%     99.99% # attempts to use FU when none available
system.switch_cpus_1.iq.ISSUE:fu_full::IntMult            0      0.00%     99.99% # attempts to use FU when none available
system.switch_cpus_1.iq.ISSUE:fu_full::IntDiv            0      0.00%     99.99% # attempts to use FU when none available
system.switch_cpus_1.iq.ISSUE:fu_full::FloatAdd            0      0.00%     99.99% # attempts to use FU when none available
system.switch_cpus_1.iq.ISSUE:fu_full::FloatCmp            0      0.00%     99.99% # attempts to use FU when none available
system.switch_cpus_1.iq.ISSUE:fu_full::FloatCvt            0      0.00%     99.99% # attempts to use FU when none available
system.switch_cpus_1.iq.ISSUE:fu_full::FloatMult            0      0.00%     99.99% # attempts to use FU when none available
system.switch_cpus_1.iq.ISSUE:fu_full::FloatDiv            0      0.00%     99.99% # attempts to use FU when none available
system.switch_cpus_1.iq.ISSUE:fu_full::FloatSqrt            0      0.00%     99.99% # attempts to use FU when none available
system.switch_cpus_1.iq.ISSUE:fu_full::MemRead            1      0.01%    100.00% # attempts to use FU when none available
system.switch_cpus_1.iq.ISSUE:fu_full::MemWrite            0      0.00%    100.00% # attempts to use FU when none available
system.switch_cpus_1.iq.ISSUE:fu_full::IprAccess            0      0.00%    100.00% # attempts to use FU when none available
system.switch_cpus_1.iq.ISSUE:fu_full::InstPrefetch            0      0.00%    100.00% # attempts to use FU when none available
system.switch_cpus_1.iq.ISSUE:issued_per_cycle::samples      7041491                       # Number of insts issued each cycle
system.switch_cpus_1.iq.ISSUE:issued_per_cycle::mean     1.649780                       # Number of insts issued each cycle
system.switch_cpus_1.iq.ISSUE:issued_per_cycle::stdev     1.284619                       # Number of insts issued each cycle
system.switch_cpus_1.iq.ISSUE:issued_per_cycle::underflows            0      0.00%      0.00% # Number of insts issued each cycle
system.switch_cpus_1.iq.ISSUE:issued_per_cycle::0      1177743     16.73%     16.73% # Number of insts issued each cycle
system.switch_cpus_1.iq.ISSUE:issued_per_cycle::1      2459486     34.93%     51.65% # Number of insts issued each cycle
system.switch_cpus_1.iq.ISSUE:issued_per_cycle::2      2289736     32.52%     84.17% # Number of insts issued each cycle
system.switch_cpus_1.iq.ISSUE:issued_per_cycle::3        80694      1.15%     85.32% # Number of insts issued each cycle
system.switch_cpus_1.iq.ISSUE:issued_per_cycle::4       872709     12.39%     97.71% # Number of insts issued each cycle
system.switch_cpus_1.iq.ISSUE:issued_per_cycle::5       128992      1.83%     99.54% # Number of insts issued each cycle
system.switch_cpus_1.iq.ISSUE:issued_per_cycle::6        25453      0.36%     99.91% # Number of insts issued each cycle
system.switch_cpus_1.iq.ISSUE:issued_per_cycle::7         6065      0.09%     99.99% # Number of insts issued each cycle
system.switch_cpus_1.iq.ISSUE:issued_per_cycle::8          613      0.01%    100.00% # Number of insts issued each cycle
system.switch_cpus_1.iq.ISSUE:issued_per_cycle::overflows            0      0.00%    100.00% # Number of insts issued each cycle
system.switch_cpus_1.iq.ISSUE:issued_per_cycle::min_value            0                       # Number of insts issued each cycle
system.switch_cpus_1.iq.ISSUE:issued_per_cycle::max_value            8                       # Number of insts issued each cycle
system.switch_cpus_1.iq.ISSUE:issued_per_cycle::total      7041491                       # Number of insts issued each cycle
system.switch_cpus_1.iq.ISSUE:rate           1.649175                       # Inst issue rate
system.switch_cpus_1.iq.iqInstsAdded         12080573                       # Number of instructions added to the IQ (excludes non-spec)
system.switch_cpus_1.iq.iqInstsIssued        11616913                       # Number of instructions issued
system.switch_cpus_1.iq.iqSquashedInstsExamined      1954208                       # Number of squashed instructions iterated over during squash; mainly for profiling
system.switch_cpus_1.iq.iqSquashedInstsIssued          618                       # Number of squashed instructions issued
system.switch_cpus_1.iq.iqSquashedOperandsExamined       855841                       # Number of squashed operands that are examined and possibly removed from graph
system.switch_cpus_1.itb.data_accesses              0                       # DTB accesses
system.switch_cpus_1.itb.data_acv                   0                       # DTB access violations
system.switch_cpus_1.itb.data_hits                  0                       # DTB hits
system.switch_cpus_1.itb.data_misses                0                       # DTB misses
system.switch_cpus_1.itb.fetch_accesses       1891227                       # ITB accesses
system.switch_cpus_1.itb.fetch_acv                  0                       # ITB acv
system.switch_cpus_1.itb.fetch_hits           1891226                       # ITB hits
system.switch_cpus_1.itb.fetch_misses               1                       # ITB misses
system.switch_cpus_1.itb.read_accesses              0                       # DTB read accesses
system.switch_cpus_1.itb.read_acv                   0                       # DTB read access violations
system.switch_cpus_1.itb.read_hits                  0                       # DTB read hits
system.switch_cpus_1.itb.read_misses                0                       # DTB read misses
system.switch_cpus_1.itb.write_accesses             0                       # DTB write accesses
system.switch_cpus_1.itb.write_acv                  0                       # DTB write access violations
system.switch_cpus_1.itb.write_hits                 0                       # DTB write hits
system.switch_cpus_1.itb.write_misses               0                       # DTB write misses
system.switch_cpus_1.memDep0.conflictingLoads       712756                       # Number of conflicting loads.
system.switch_cpus_1.memDep0.conflictingStores       659708                       # Number of conflicting stores.
system.switch_cpus_1.memDep0.insertedLoads      1907043                       # Number of loads inserted to the mem dependence unit.
system.switch_cpus_1.memDep0.insertedStores      1790795                       # Number of stores inserted to the mem dependence unit.
system.switch_cpus_1.numCycles                7044074                       # number of cpu cycles simulated
system.switch_cpus_1.rename.RENAME:BlockCycles        10559                       # Number of cycles rename is blocking
system.switch_cpus_1.rename.RENAME:CommittedMaps      6961898                       # Number of HB maps that are committed
system.switch_cpus_1.rename.RENAME:IQFullEvents           82                       # Number of times rename has blocked due to IQ full
system.switch_cpus_1.rename.RENAME:IdleCycles      3815507                       # Number of cycles rename is idle
system.switch_cpus_1.rename.RENAME:LSQFullEvents         4419                       # Number of times rename has blocked due to LSQ full
system.switch_cpus_1.rename.RENAME:ROBFullEvents          376                       # Number of times rename has blocked due to ROB full
system.switch_cpus_1.rename.RENAME:RenameLookups     18202350                       # Number of register rename lookups that rename has made
system.switch_cpus_1.rename.RENAME:RenamedInsts     12934118                       # Number of instructions processed by rename
system.switch_cpus_1.rename.RENAME:RenamedOperands      8757604                       # Number of destination operands rename has renamed
system.switch_cpus_1.rename.RENAME:RunCycles      2907382                       # Number of cycles rename is running
system.switch_cpus_1.rename.RENAME:SquashCycles       303193                       # Number of cycles rename is squashing
system.switch_cpus_1.rename.RENAME:UnblockCycles         4849                       # Number of cycles rename is unblocking
system.switch_cpus_1.rename.RENAME:UndoneMaps      1795697                       # Number of HB maps that are undone due to squashing
system.switch_cpus_1.rename.RENAME:serializeStallCycles            0                       # count of cycles rename stalled for serializing inst
system.switch_cpus_1.rename.RENAME:serializingInsts            0                       # count of serializing insts renamed
system.switch_cpus_1.rename.RENAME:skidInsts         9197                       # count of insts added to the skid buffer
system.switch_cpus_1.rename.RENAME:tempSerializingInsts            0                       # count of temporary serializing insts renamed
system.switch_cpus_1.timesIdled                   172                       # Number of times that the entire CPU went into an idle state and unscheduled itself

---------- End Simulation Statistics   ----------
