
---------- Begin Simulation Statistics ----------
host_inst_rate                                 368695                       # Simulator instruction rate (inst/s)
host_mem_usage                                 402748                       # Number of bytes of host memory used
host_seconds                                    54.25                       # Real time elapsed on the host
host_tick_rate                              330047661                       # Simulator tick rate (ticks/s)
sim_freq                                 1000000000000                       # Frequency of simulated ticks
sim_insts                                    20000003                       # Number of instructions simulated
sim_seconds                                  0.017904                       # Number of seconds simulated
sim_ticks                                 17903624500                       # Number of ticks simulated
system.cpu.dcache.ReadReq_accesses            3329890                       # number of ReadReq accesses(hits+misses)
system.cpu.dcache.ReadReq_avg_miss_latency 21389.622569                       # average ReadReq miss latency
system.cpu.dcache.ReadReq_avg_mshr_miss_latency 18489.580855                       # average ReadReq mshr miss latency
system.cpu.dcache.ReadReq_hits                3238721                       # number of ReadReq hits
system.cpu.dcache.ReadReq_miss_latency     1950070500                       # number of ReadReq miss cycles
system.cpu.dcache.ReadReq_miss_rate          0.027379                       # miss rate for ReadReq accesses
system.cpu.dcache.ReadReq_misses                91169                       # number of ReadReq misses
system.cpu.dcache.ReadReq_mshr_hits              7093                       # number of ReadReq MSHR hits
system.cpu.dcache.ReadReq_mshr_miss_latency   1554530000                       # number of ReadReq MSHR miss cycles
system.cpu.dcache.ReadReq_mshr_miss_rate     0.025249                       # mshr miss rate for ReadReq accesses
system.cpu.dcache.ReadReq_mshr_misses           84076                       # number of ReadReq MSHR misses
system.cpu.dcache.WriteReq_accesses           2822830                       # number of WriteReq accesses(hits+misses)
system.cpu.dcache.WriteReq_avg_miss_latency 24499.433749                       # average WriteReq miss latency
system.cpu.dcache.WriteReq_avg_mshr_miss_latency 21790.831732                       # average WriteReq mshr miss latency
system.cpu.dcache.WriteReq_hits               2818415                       # number of WriteReq hits
system.cpu.dcache.WriteReq_miss_latency     108165000                       # number of WriteReq miss cycles
system.cpu.dcache.WriteReq_miss_rate         0.001564                       # miss rate for WriteReq accesses
system.cpu.dcache.WriteReq_misses                4415                       # number of WriteReq misses
system.cpu.dcache.WriteReq_mshr_hits              771                       # number of WriteReq MSHR hits
system.cpu.dcache.WriteReq_mshr_miss_latency     79384000                       # number of WriteReq MSHR miss cycles
system.cpu.dcache.WriteReq_mshr_miss_rate     0.001291                       # mshr miss rate for WriteReq accesses
system.cpu.dcache.WriteReq_mshr_misses           3643                       # number of WriteReq MSHR misses
system.cpu.dcache.avg_blocked_cycles::no_mshrs     no_value                       # average number of cycles each access was blocked
system.cpu.dcache.avg_blocked_cycles::no_targets 64089.430894                       # average number of cycles each access was blocked
system.cpu.dcache.avg_refs                  69.636677                       # Average number of references to valid blocks.
system.cpu.dcache.blocked::no_mshrs                 0                       # number of cycles access was blocked
system.cpu.dcache.blocked::no_targets             123                       # number of cycles access was blocked
system.cpu.dcache.blocked_cycles::no_mshrs            0                       # number of cycles access was blocked
system.cpu.dcache.blocked_cycles::no_targets      7883000                       # number of cycles access was blocked
system.cpu.dcache.cache_copies                      0                       # number of cache copies performed
system.cpu.dcache.demand_accesses             6152720                       # number of demand (read+write) accesses
system.cpu.dcache.demand_avg_miss_latency 21533.263935                       # average overall miss latency
system.cpu.dcache.demand_avg_mshr_miss_latency 18626.682931                       # average overall mshr miss latency
system.cpu.dcache.demand_hits                 6057136                       # number of demand (read+write) hits
system.cpu.dcache.demand_miss_latency      2058235500                       # number of demand (read+write) miss cycles
system.cpu.dcache.demand_miss_rate           0.015535                       # miss rate for demand accesses
system.cpu.dcache.demand_misses                 95584                       # number of demand (read+write) misses
system.cpu.dcache.demand_mshr_hits               7864                       # number of demand (read+write) MSHR hits
system.cpu.dcache.demand_mshr_miss_latency   1633914000                       # number of demand (read+write) MSHR miss cycles
system.cpu.dcache.demand_mshr_miss_rate      0.014257                       # mshr miss rate for demand accesses
system.cpu.dcache.demand_mshr_misses            87719                       # number of demand (read+write) MSHR misses
system.cpu.dcache.fast_writes                       0                       # number of fast writes performed
system.cpu.dcache.mshr_cap_events                   0                       # number of times MSHR cap was activated
system.cpu.dcache.no_allocate_misses                0                       # Number of misses that were no-allocate
system.cpu.dcache.occ_%::0                   0.980685                       # Average percentage of cache occupancy
system.cpu.dcache.occ_blocks::0           1004.221523                       # Average occupied blocks per context
system.cpu.dcache.overall_accesses            6152720                       # number of overall (read+write) accesses
system.cpu.dcache.overall_avg_miss_latency 21533.263935                       # average overall miss latency
system.cpu.dcache.overall_avg_mshr_miss_latency 18626.682931                       # average overall mshr miss latency
system.cpu.dcache.overall_avg_mshr_uncacheable_latency     no_value                       # average overall mshr uncacheable latency
system.cpu.dcache.overall_hits                6057136                       # number of overall hits
system.cpu.dcache.overall_miss_latency     2058235500                       # number of overall miss cycles
system.cpu.dcache.overall_miss_rate          0.015535                       # miss rate for overall accesses
system.cpu.dcache.overall_misses                95584                       # number of overall misses
system.cpu.dcache.overall_mshr_hits              7864                       # number of overall MSHR hits
system.cpu.dcache.overall_mshr_miss_latency   1633914000                       # number of overall MSHR miss cycles
system.cpu.dcache.overall_mshr_miss_rate     0.014257                       # mshr miss rate for overall accesses
system.cpu.dcache.overall_mshr_misses           87719                       # number of overall MSHR misses
system.cpu.dcache.overall_mshr_uncacheable_latency            0                       # number of overall MSHR uncacheable cycles
system.cpu.dcache.overall_mshr_uncacheable_misses            0                       # number of overall MSHR uncacheable misses
system.cpu.dcache.prefetch_accuracy          no_value                       # ratio of good prefetches to total prefetches
system.cpu.dcache.prefetch_hits                     0                       # number of prefetched blocks that were accessed
system.cpu.dcache.replacements                  85973                       # number of replacements
system.cpu.dcache.sampled_refs                  86997                       # Sample count of references to valid blocks.
system.cpu.dcache.soft_prefetch_mshr_full            0                       # number of mshr full events for SW prefetching instrutions
system.cpu.dcache.tagsinuse               1004.221523                       # Cycle average of tags in use
system.cpu.dcache.total_refs                  6058182                       # Total number of references to valid blocks.
system.cpu.dcache.warmup_cycle           502104370000                       # Cycle when the warmup percentage was hit.
system.cpu.dcache.writebacks                     3600                       # number of writebacks
system.cpu.dtb.data_accesses                        1                       # DTB accesses
system.cpu.dtb.data_acv                             0                       # DTB access violations
system.cpu.dtb.data_hits                            1                       # DTB hits
system.cpu.dtb.data_misses                          0                       # DTB misses
system.cpu.dtb.fetch_accesses                       0                       # ITB accesses
system.cpu.dtb.fetch_acv                            0                       # ITB acv
system.cpu.dtb.fetch_hits                           0                       # ITB hits
system.cpu.dtb.fetch_misses                         0                       # ITB misses
system.cpu.dtb.read_accesses                        0                       # DTB read accesses
system.cpu.dtb.read_acv                             0                       # DTB read access violations
system.cpu.dtb.read_hits                            0                       # DTB read hits
system.cpu.dtb.read_misses                          0                       # DTB read misses
system.cpu.dtb.write_accesses                       1                       # DTB write accesses
system.cpu.dtb.write_acv                            0                       # DTB write access violations
system.cpu.dtb.write_hits                           1                       # DTB write hits
system.cpu.dtb.write_misses                         0                       # DTB write misses
system.cpu.icache.ReadReq_accesses           12244536                       # number of ReadReq accesses(hits+misses)
system.cpu.icache.ReadReq_avg_miss_latency 48730.769231                       # average ReadReq miss latency
system.cpu.icache.ReadReq_avg_mshr_miss_latency 57062.500000                       # average ReadReq mshr miss latency
system.cpu.icache.ReadReq_hits               12244523                       # number of ReadReq hits
system.cpu.icache.ReadReq_miss_latency         633500                       # number of ReadReq miss cycles
system.cpu.icache.ReadReq_miss_rate          0.000001                       # miss rate for ReadReq accesses
system.cpu.icache.ReadReq_misses                   13                       # number of ReadReq misses
system.cpu.icache.ReadReq_mshr_hits                 4                       # number of ReadReq MSHR hits
system.cpu.icache.ReadReq_mshr_miss_latency       456500                       # number of ReadReq MSHR miss cycles
system.cpu.icache.ReadReq_mshr_miss_rate     0.000001                       # mshr miss rate for ReadReq accesses
system.cpu.icache.ReadReq_mshr_misses               8                       # number of ReadReq MSHR misses
system.cpu.icache.avg_blocked_cycles::no_mshrs     no_value                       # average number of cycles each access was blocked
system.cpu.icache.avg_blocked_cycles::no_targets        23500                       # average number of cycles each access was blocked
system.cpu.icache.avg_refs               1360502.555556                       # Average number of references to valid blocks.
system.cpu.icache.blocked::no_mshrs                 0                       # number of cycles access was blocked
system.cpu.icache.blocked::no_targets               1                       # number of cycles access was blocked
system.cpu.icache.blocked_cycles::no_mshrs            0                       # number of cycles access was blocked
system.cpu.icache.blocked_cycles::no_targets        23500                       # number of cycles access was blocked
system.cpu.icache.cache_copies                      0                       # number of cache copies performed
system.cpu.icache.demand_accesses            12244536                       # number of demand (read+write) accesses
system.cpu.icache.demand_avg_miss_latency 48730.769231                       # average overall miss latency
system.cpu.icache.demand_avg_mshr_miss_latency 57062.500000                       # average overall mshr miss latency
system.cpu.icache.demand_hits                12244523                       # number of demand (read+write) hits
system.cpu.icache.demand_miss_latency          633500                       # number of demand (read+write) miss cycles
system.cpu.icache.demand_miss_rate           0.000001                       # miss rate for demand accesses
system.cpu.icache.demand_misses                    13                       # number of demand (read+write) misses
system.cpu.icache.demand_mshr_hits                  4                       # number of demand (read+write) MSHR hits
system.cpu.icache.demand_mshr_miss_latency       456500                       # number of demand (read+write) MSHR miss cycles
system.cpu.icache.demand_mshr_miss_rate      0.000001                       # mshr miss rate for demand accesses
system.cpu.icache.demand_mshr_misses                8                       # number of demand (read+write) MSHR misses
system.cpu.icache.fast_writes                       0                       # number of fast writes performed
system.cpu.icache.mshr_cap_events                   0                       # number of times MSHR cap was activated
system.cpu.icache.no_allocate_misses                0                       # Number of misses that were no-allocate
system.cpu.icache.occ_%::0                   0.012836                       # Average percentage of cache occupancy
system.cpu.icache.occ_blocks::0              6.572012                       # Average occupied blocks per context
system.cpu.icache.overall_accesses           12244536                       # number of overall (read+write) accesses
system.cpu.icache.overall_avg_miss_latency 48730.769231                       # average overall miss latency
system.cpu.icache.overall_avg_mshr_miss_latency 57062.500000                       # average overall mshr miss latency
system.cpu.icache.overall_avg_mshr_uncacheable_latency     no_value                       # average overall mshr uncacheable latency
system.cpu.icache.overall_hits               12244523                       # number of overall hits
system.cpu.icache.overall_miss_latency         633500                       # number of overall miss cycles
system.cpu.icache.overall_miss_rate          0.000001                       # miss rate for overall accesses
system.cpu.icache.overall_misses                   13                       # number of overall misses
system.cpu.icache.overall_mshr_hits                 4                       # number of overall MSHR hits
system.cpu.icache.overall_mshr_miss_latency       456500                       # number of overall MSHR miss cycles
system.cpu.icache.overall_mshr_miss_rate     0.000001                       # mshr miss rate for overall accesses
system.cpu.icache.overall_mshr_misses               8                       # number of overall MSHR misses
system.cpu.icache.overall_mshr_uncacheable_latency            0                       # number of overall MSHR uncacheable cycles
system.cpu.icache.overall_mshr_uncacheable_misses            0                       # number of overall MSHR uncacheable misses
system.cpu.icache.prefetch_accuracy          no_value                       # ratio of good prefetches to total prefetches
system.cpu.icache.prefetch_hits                     0                       # number of prefetched blocks that were accessed
system.cpu.icache.replacements                      0                       # number of replacements
system.cpu.icache.sampled_refs                      9                       # Sample count of references to valid blocks.
system.cpu.icache.soft_prefetch_mshr_full            0                       # number of mshr full events for SW prefetching instrutions
system.cpu.icache.tagsinuse                  6.572012                       # Cycle average of tags in use
system.cpu.icache.total_refs                 12244523                       # Total number of references to valid blocks.
system.cpu.icache.warmup_cycle                      0                       # Cycle when the warmup percentage was hit.
system.cpu.icache.writebacks                        0                       # number of writebacks
system.cpu.idle_fraction                            0                       # Percentage of idle cycles
system.cpu.itb.data_accesses                        0                       # DTB accesses
system.cpu.itb.data_acv                             0                       # DTB access violations
system.cpu.itb.data_hits                            0                       # DTB hits
system.cpu.itb.data_misses                          0                       # DTB misses
system.cpu.itb.fetch_accesses                       2                       # ITB accesses
system.cpu.itb.fetch_acv                            0                       # ITB acv
system.cpu.itb.fetch_hits                           2                       # ITB hits
system.cpu.itb.fetch_misses                         0                       # ITB misses
system.cpu.itb.read_accesses                        0                       # DTB read accesses
system.cpu.itb.read_acv                             0                       # DTB read access violations
system.cpu.itb.read_hits                            0                       # DTB read hits
system.cpu.itb.read_misses                          0                       # DTB read misses
system.cpu.itb.write_accesses                       0                       # DTB write accesses
system.cpu.itb.write_acv                            0                       # DTB write access violations
system.cpu.itb.write_hits                           0                       # DTB write hits
system.cpu.itb.write_misses                         0                       # DTB write misses
system.cpu.not_idle_fraction                        1                       # Percentage of non-idle cycles
system.cpu.numCycles                                2                       # number of cpu cycles simulated
system.cpu.num_insts                                2                       # Number of instructions executed
system.cpu.num_refs                                 1                       # Number of memory references
system.cpu.workload.PROG:num_syscalls               0                       # Number of system calls
system.l2.HardPFReq_avg_mshr_miss_latency 65205.161566                       # average HardPFReq mshr miss latency
system.l2.HardPFReq_mshr_miss_latency      5224367955                       # number of HardPFReq MSHR miss cycles
system.l2.HardPFReq_mshr_miss_rate                inf                       # mshr miss rate for HardPFReq accesses
system.l2.HardPFReq_mshr_misses                 80122                       # number of HardPFReq MSHR misses
system.l2.ReadExReq_accesses                     2921                       # number of ReadExReq accesses(hits+misses)
system.l2.ReadExReq_avg_miss_latency     66035.714286                       # average ReadExReq miss latency
system.l2.ReadExReq_avg_mshr_miss_latency 55307.692308                       # average ReadExReq mshr miss latency
system.l2.ReadExReq_hits                         2907                       # number of ReadExReq hits
system.l2.ReadExReq_miss_latency               924500                       # number of ReadExReq miss cycles
system.l2.ReadExReq_miss_rate                0.004793                       # miss rate for ReadExReq accesses
system.l2.ReadExReq_misses                         14                       # number of ReadExReq misses
system.l2.ReadExReq_mshr_miss_latency          719000                       # number of ReadExReq MSHR miss cycles
system.l2.ReadExReq_mshr_miss_rate           0.004451                       # mshr miss rate for ReadExReq accesses
system.l2.ReadExReq_mshr_misses                    13                       # number of ReadExReq MSHR misses
system.l2.ReadReq_accesses                      84085                       # number of ReadReq accesses(hits+misses)
system.l2.ReadReq_avg_miss_latency       70367.226157                       # average ReadReq miss latency
system.l2.ReadReq_avg_mshr_miss_latency  54962.872257                       # average ReadReq mshr miss latency
system.l2.ReadReq_hits                          73778                       # number of ReadReq hits
system.l2.ReadReq_miss_latency              725275000                       # number of ReadReq miss cycles
system.l2.ReadReq_miss_rate                  0.122578                       # miss rate for ReadReq accesses
system.l2.ReadReq_misses                        10307                       # number of ReadReq misses
system.l2.ReadReq_mshr_hits                        98                       # number of ReadReq MSHR hits
system.l2.ReadReq_mshr_miss_latency         561061000                       # number of ReadReq MSHR miss cycles
system.l2.ReadReq_mshr_miss_rate             0.121401                       # mshr miss rate for ReadReq accesses
system.l2.ReadReq_mshr_misses                   10208                       # number of ReadReq MSHR misses
system.l2.UpgradeReq_accesses                     723                       # number of UpgradeReq accesses(hits+misses)
system.l2.UpgradeReq_avg_miss_latency    63113.416321                       # average UpgradeReq miss latency
system.l2.UpgradeReq_avg_mshr_miss_latency 47305.670816                       # average UpgradeReq mshr miss latency
system.l2.UpgradeReq_miss_latency            45631000                       # number of UpgradeReq miss cycles
system.l2.UpgradeReq_miss_rate                      1                       # miss rate for UpgradeReq accesses
system.l2.UpgradeReq_misses                       723                       # number of UpgradeReq misses
system.l2.UpgradeReq_mshr_miss_latency       34202000                       # number of UpgradeReq MSHR miss cycles
system.l2.UpgradeReq_mshr_miss_rate                 1                       # mshr miss rate for UpgradeReq accesses
system.l2.UpgradeReq_mshr_misses                  723                       # number of UpgradeReq MSHR misses
system.l2.Writeback_accesses                     3600                       # number of Writeback accesses(hits+misses)
system.l2.Writeback_hits                         3600                       # number of Writeback hits
system.l2.avg_blocked_cycles::no_mshrs       no_value                       # average number of cycles each access was blocked
system.l2.avg_blocked_cycles::no_targets     no_value                       # average number of cycles each access was blocked
system.l2.avg_refs                           0.854873                       # Average number of references to valid blocks.
system.l2.blocked::no_mshrs                         0                       # number of cycles access was blocked
system.l2.blocked::no_targets                       0                       # number of cycles access was blocked
system.l2.blocked_cycles::no_mshrs                  0                       # number of cycles access was blocked
system.l2.blocked_cycles::no_targets                0                       # number of cycles access was blocked
system.l2.cache_copies                              0                       # number of cache copies performed
system.l2.demand_accesses                       87006                       # number of demand (read+write) accesses
system.l2.demand_avg_miss_latency        70361.350644                       # average overall miss latency
system.l2.demand_avg_mshr_miss_latency   54963.310831                       # average overall mshr miss latency
system.l2.demand_hits                           76685                       # number of demand (read+write) hits
system.l2.demand_miss_latency               726199500                       # number of demand (read+write) miss cycles
system.l2.demand_miss_rate                   0.118624                       # miss rate for demand accesses
system.l2.demand_misses                         10321                       # number of demand (read+write) misses
system.l2.demand_mshr_hits                         98                       # number of demand (read+write) MSHR hits
system.l2.demand_mshr_miss_latency          561780000                       # number of demand (read+write) MSHR miss cycles
system.l2.demand_mshr_miss_rate              0.117475                       # mshr miss rate for demand accesses
system.l2.demand_mshr_misses                    10221                       # number of demand (read+write) MSHR misses
system.l2.fast_writes                               0                       # number of fast writes performed
system.l2.mshr_cap_events                           0                       # number of times MSHR cap was activated
system.l2.no_allocate_misses                        0                       # Number of misses that were no-allocate
system.l2.occ_%::0                           0.827013                       # Average percentage of cache occupancy
system.l2.occ_%::1                           0.021402                       # Average percentage of cache occupancy
system.l2.occ_blocks::0                  13549.772975                       # Average occupied blocks per context
system.l2.occ_blocks::1                    350.644816                       # Average occupied blocks per context
system.l2.overall_accesses                      87006                       # number of overall (read+write) accesses
system.l2.overall_avg_miss_latency       70361.350644                       # average overall miss latency
system.l2.overall_avg_mshr_miss_latency  64046.444716                       # average overall mshr miss latency
system.l2.overall_avg_mshr_uncacheable_latency     no_value                       # average overall mshr uncacheable latency
system.l2.overall_hits                          76685                       # number of overall hits
system.l2.overall_miss_latency              726199500                       # number of overall miss cycles
system.l2.overall_miss_rate                  0.118624                       # miss rate for overall accesses
system.l2.overall_misses                        10321                       # number of overall misses
system.l2.overall_mshr_hits                        98                       # number of overall MSHR hits
system.l2.overall_mshr_miss_latency        5786147955                       # number of overall MSHR miss cycles
system.l2.overall_mshr_miss_rate             1.038354                       # mshr miss rate for overall accesses
system.l2.overall_mshr_misses                   90343                       # number of overall MSHR misses
system.l2.overall_mshr_uncacheable_latency            0                       # number of overall MSHR uncacheable cycles
system.l2.overall_mshr_uncacheable_misses            0                       # number of overall MSHR uncacheable misses
system.l2.prefetch_accuracy                  0.250680                       # ratio of good prefetches to total prefetches
system.l2.prefetch_hits                         20085                       # number of prefetched blocks that were accessed
system.l2.prefetcher.num_hwpf_already_in_prefetcher         1887                       # number of hwpf that were already in the prefetch queue
system.l2.prefetcher.num_hwpf_evicted               0                       # number of hwpf removed due to no buffer left
system.l2.prefetcher.num_hwpf_identified        82841                       # number of hwpf identified
system.l2.prefetcher.num_hwpf_issued            80688                       # number of hwpf issued
system.l2.prefetcher.num_hwpf_removed_MSHR_hit          266                       # number of hwpf removed because MSHR allocated
system.l2.prefetcher.num_hwpf_span_page             0                       # number of hwpf spanning a virtual page
system.l2.prefetcher.num_hwpf_squashed_from_miss            0                       # number of hwpf that got squashed due to a miss aborting calculation time
system.l2.replacements                          74173                       # number of replacements
system.l2.sampled_refs                          90107                       # Sample count of references to valid blocks.
system.l2.soft_prefetch_mshr_full                   0                       # number of mshr full events for SW prefetching instrutions
system.l2.tagsinuse                      13900.417791                       # Cycle average of tags in use
system.l2.total_refs                            77030                       # Total number of references to valid blocks.
system.l2.warmup_cycle                              0                       # Cycle when the warmup percentage was hit.
system.l2.writebacks                             2393                       # number of writebacks
system.switch_cpus.dtb.data_accesses          2972120                       # DTB accesses
system.switch_cpus.dtb.data_acv                     0                       # DTB access violations
system.switch_cpus.dtb.data_hits              2969257                       # DTB hits
system.switch_cpus.dtb.data_misses               2863                       # DTB misses
system.switch_cpus.dtb.fetch_accesses               0                       # ITB accesses
system.switch_cpus.dtb.fetch_acv                    0                       # ITB acv
system.switch_cpus.dtb.fetch_hits                   0                       # ITB hits
system.switch_cpus.dtb.fetch_misses                 0                       # ITB misses
system.switch_cpus.dtb.read_accesses          1546660                       # DTB read accesses
system.switch_cpus.dtb.read_acv                     0                       # DTB read access violations
system.switch_cpus.dtb.read_hits              1543848                       # DTB read hits
system.switch_cpus.dtb.read_misses               2812                       # DTB read misses
system.switch_cpus.dtb.write_accesses         1425460                       # DTB write accesses
system.switch_cpus.dtb.write_acv                    0                       # DTB write access violations
system.switch_cpus.dtb.write_hits             1425409                       # DTB write hits
system.switch_cpus.dtb.write_misses                51                       # DTB write misses
system.switch_cpus.idle_fraction                    1                       # Percentage of idle cycles
system.switch_cpus.itb.data_accesses                0                       # DTB accesses
system.switch_cpus.itb.data_acv                     0                       # DTB access violations
system.switch_cpus.itb.data_hits                    0                       # DTB hits
system.switch_cpus.itb.data_misses                  0                       # DTB misses
system.switch_cpus.itb.fetch_accesses        10002866                       # ITB accesses
system.switch_cpus.itb.fetch_acv                    0                       # ITB acv
system.switch_cpus.itb.fetch_hits            10002865                       # ITB hits
system.switch_cpus.itb.fetch_misses                 1                       # ITB misses
system.switch_cpus.itb.read_accesses                0                       # DTB read accesses
system.switch_cpus.itb.read_acv                     0                       # DTB read access violations
system.switch_cpus.itb.read_hits                    0                       # DTB read hits
system.switch_cpus.itb.read_misses                  0                       # DTB read misses
system.switch_cpus.itb.write_accesses               0                       # DTB write accesses
system.switch_cpus.itb.write_acv                    0                       # DTB write access violations
system.switch_cpus.itb.write_hits                   0                       # DTB write hits
system.switch_cpus.itb.write_misses                 0                       # DTB write misses
system.switch_cpus.not_idle_fraction                0                       # Percentage of non-idle cycles
system.switch_cpus.numCycles                 27417270                       # number of cpu cycles simulated
system.switch_cpus.num_insts                 10000001                       # Number of instructions executed
system.switch_cpus.num_refs                   2972120                       # Number of memory references
system.switch_cpus_1.BPredUnit.BTBCorrect            0                       # Number of correct BTB predictions (this stat may not work properly.
system.switch_cpus_1.BPredUnit.BTBHits        2068540                       # Number of BTB hits
system.switch_cpus_1.BPredUnit.BTBLookups      2130979                       # Number of BTB lookups
system.switch_cpus_1.BPredUnit.RASInCorrect            0                       # Number of incorrect RAS predictions.
system.switch_cpus_1.BPredUnit.condIncorrect       160738                       # Number of conditional branches incorrect
system.switch_cpus_1.BPredUnit.condPredicted      2166962                       # Number of conditional branches predicted
system.switch_cpus_1.BPredUnit.lookups        2323430                       # Number of BP lookups
system.switch_cpus_1.BPredUnit.usedRAS              0                       # Number of times the RAS was used to get a target.
system.switch_cpus_1.commit.COM:branches      1623752                       # Number of branches committed
system.switch_cpus_1.commit.COM:bw_lim_events        91984                       # number cycles where commit BW limit reached
system.switch_cpus_1.commit.COM:bw_limited            0                       # number of insts not committed due to BW limits
system.switch_cpus_1.commit.COM:committed_per_cycle::samples      7822534                       # Number of insts commited each cycle
system.switch_cpus_1.commit.COM:committed_per_cycle::mean     1.329302                       # Number of insts commited each cycle
system.switch_cpus_1.commit.COM:committed_per_cycle::stdev     1.773664                       # Number of insts commited each cycle
system.switch_cpus_1.commit.COM:committed_per_cycle::underflows            0      0.00%      0.00% # Number of insts commited each cycle
system.switch_cpus_1.commit.COM:committed_per_cycle::0      3243419     41.46%     41.46% # Number of insts commited each cycle
system.switch_cpus_1.commit.COM:committed_per_cycle::1      2844673     36.37%     77.83% # Number of insts commited each cycle
system.switch_cpus_1.commit.COM:committed_per_cycle::2       167786      2.14%     79.97% # Number of insts commited each cycle
system.switch_cpus_1.commit.COM:committed_per_cycle::3        73592      0.94%     80.91% # Number of insts commited each cycle
system.switch_cpus_1.commit.COM:committed_per_cycle::4       756955      9.68%     90.59% # Number of insts commited each cycle
system.switch_cpus_1.commit.COM:committed_per_cycle::5       634524      8.11%     98.70% # Number of insts commited each cycle
system.switch_cpus_1.commit.COM:committed_per_cycle::6         6032      0.08%     98.78% # Number of insts commited each cycle
system.switch_cpus_1.commit.COM:committed_per_cycle::7         3569      0.05%     98.82% # Number of insts commited each cycle
system.switch_cpus_1.commit.COM:committed_per_cycle::8        91984      1.18%    100.00% # Number of insts commited each cycle
system.switch_cpus_1.commit.COM:committed_per_cycle::overflows            0      0.00%    100.00% # Number of insts commited each cycle
system.switch_cpus_1.commit.COM:committed_per_cycle::min_value            0                       # Number of insts commited each cycle
system.switch_cpus_1.commit.COM:committed_per_cycle::max_value            8                       # Number of insts commited each cycle
system.switch_cpus_1.commit.COM:committed_per_cycle::total      7822534                       # Number of insts commited each cycle
system.switch_cpus_1.commit.COM:count        10398508                       # Number of instructions committed
system.switch_cpus_1.commit.COM:loads         1606582                       # Number of loads committed
system.switch_cpus_1.commit.COM:membars             0                       # Number of memory barriers committed
system.switch_cpus_1.commit.COM:refs          3004003                       # Number of memory references committed
system.switch_cpus_1.commit.COM:swp_count            0                       # Number of s/w prefetches committed
system.switch_cpus_1.commit.branchMispredicts       160734                       # The number of times a branch was mispredicted
system.switch_cpus_1.commit.commitCommittedInsts     10398508                       # The number of committed instructions
system.switch_cpus_1.commit.commitSquashedInsts      2910912                       # The number of squashed insts skipped by commit
system.switch_cpus_1.committedInsts          10000000                       # Number of Instructions Simulated
system.switch_cpus_1.committedInsts_total     10000000                       # Number of Instructions Simulated
system.switch_cpus_1.cpi                     0.838998                       # CPI: Cycles Per Instruction
system.switch_cpus_1.cpi_total               0.838998                       # CPI: Total CPI of All Threads
system.switch_cpus_1.decode.DECODE:BlockedCycles        76423                       # Number of cycles decode is blocked
system.switch_cpus_1.decode.DECODE:BranchMispred          214                       # Number of times decode detected a branch misprediction
system.switch_cpus_1.decode.DECODE:BranchResolved       152535                       # Number of times decode resolved a branch
system.switch_cpus_1.decode.DECODE:DecodedInsts     14516288                       # Number of instructions handled by decode
system.switch_cpus_1.decode.DECODE:IdleCycles      4486938                       # Number of cycles decode is idle
system.switch_cpus_1.decode.DECODE:RunCycles      3256259                       # Number of cycles decode is running
system.switch_cpus_1.decode.DECODE:SquashCycles       487803                       # Number of cycles decode is squashing
system.switch_cpus_1.decode.DECODE:SquashedInsts            8                       # Number of squashed instructions handled by decode
system.switch_cpus_1.decode.DECODE:UnblockCycles         2913                       # Number of cycles decode is unblocking
system.switch_cpus_1.dtb.data_accesses        3557144                       # DTB accesses
system.switch_cpus_1.dtb.data_acv                   0                       # DTB access violations
system.switch_cpus_1.dtb.data_hits            3550560                       # DTB hits
system.switch_cpus_1.dtb.data_misses             6584                       # DTB misses
system.switch_cpus_1.dtb.fetch_accesses             0                       # ITB accesses
system.switch_cpus_1.dtb.fetch_acv                  0                       # ITB acv
system.switch_cpus_1.dtb.fetch_hits                 0                       # ITB hits
system.switch_cpus_1.dtb.fetch_misses               0                       # ITB misses
system.switch_cpus_1.dtb.read_accesses        1918292                       # DTB read accesses
system.switch_cpus_1.dtb.read_acv                   0                       # DTB read access violations
system.switch_cpus_1.dtb.read_hits            1911962                       # DTB read hits
system.switch_cpus_1.dtb.read_misses             6330                       # DTB read misses
system.switch_cpus_1.dtb.write_accesses       1638852                       # DTB write accesses
system.switch_cpus_1.dtb.write_acv                  0                       # DTB write access violations
system.switch_cpus_1.dtb.write_hits           1638598                       # DTB write hits
system.switch_cpus_1.dtb.write_misses             254                       # DTB write misses
system.switch_cpus_1.fetch.Branches           2323430                       # Number of branches that fetch encountered
system.switch_cpus_1.fetch.CacheLines         2241669                       # Number of cache lines fetched
system.switch_cpus_1.fetch.Cycles             5541023                       # Number of cycles fetch has run and was not squashing or blocked
system.switch_cpus_1.fetch.IcacheSquashes        42935                       # Number of outstanding Icache misses that were squashed
system.switch_cpus_1.fetch.Insts             14757705                       # Number of instructions fetch has processed
system.switch_cpus_1.fetch.SquashCycles        176467                       # Number of cycles fetch has spent squashing
system.switch_cpus_1.fetch.branchRate        0.276929                       # Number of branch fetches per cycle
system.switch_cpus_1.fetch.icacheStallCycles      2241669                       # Number of cycles fetch is stalled on an Icache miss
system.switch_cpus_1.fetch.predictedBranches      2068540                       # Number of branches that fetch has predicted taken
system.switch_cpus_1.fetch.rate              1.758968                       # Number of inst fetches per cycle
system.switch_cpus_1.fetch.rateDist::samples      8310337                       # Number of instructions fetched each cycle (Total)
system.switch_cpus_1.fetch.rateDist::mean     1.775825                       # Number of instructions fetched each cycle (Total)
system.switch_cpus_1.fetch.rateDist::stdev     2.705302                       # Number of instructions fetched each cycle (Total)
system.switch_cpus_1.fetch.rateDist::underflows            0      0.00%      0.00% # Number of instructions fetched each cycle (Total)
system.switch_cpus_1.fetch.rateDist::0        5010983     60.30%     60.30% # Number of instructions fetched each cycle (Total)
system.switch_cpus_1.fetch.rateDist::1         795761      9.58%     69.87% # Number of instructions fetched each cycle (Total)
system.switch_cpus_1.fetch.rateDist::2         173159      2.08%     71.96% # Number of instructions fetched each cycle (Total)
system.switch_cpus_1.fetch.rateDist::3          53606      0.65%     72.60% # Number of instructions fetched each cycle (Total)
system.switch_cpus_1.fetch.rateDist::4         564714      6.80%     79.40% # Number of instructions fetched each cycle (Total)
system.switch_cpus_1.fetch.rateDist::5         649560      7.82%     87.21% # Number of instructions fetched each cycle (Total)
system.switch_cpus_1.fetch.rateDist::6          31553      0.38%     87.59% # Number of instructions fetched each cycle (Total)
system.switch_cpus_1.fetch.rateDist::7         489174      5.89%     93.48% # Number of instructions fetched each cycle (Total)
system.switch_cpus_1.fetch.rateDist::8         541827      6.52%    100.00% # Number of instructions fetched each cycle (Total)
system.switch_cpus_1.fetch.rateDist::overflows            0      0.00%    100.00% # Number of instructions fetched each cycle (Total)
system.switch_cpus_1.fetch.rateDist::min_value            0                       # Number of instructions fetched each cycle (Total)
system.switch_cpus_1.fetch.rateDist::max_value            8                       # Number of instructions fetched each cycle (Total)
system.switch_cpus_1.fetch.rateDist::total      8310337                       # Number of instructions fetched each cycle (Total)
system.switch_cpus_1.idleCycles                 79641                       # Total number of cycles that the CPU has spent unscheduled due to idling
system.switch_cpus_1.iew.EXEC:branches        1994935                       # Number of branches executed
system.switch_cpus_1.iew.EXEC:nop              875880                       # number of nop insts executed
system.switch_cpus_1.iew.EXEC:rate           1.422389                       # Inst execution rate
system.switch_cpus_1.iew.EXEC:refs            3557144                       # number of memory reference insts executed
system.switch_cpus_1.iew.EXEC:stores          1638852                       # Number of stores executed
system.switch_cpus_1.iew.EXEC:swp                   0                       # number of swp insts executed
system.switch_cpus_1.iew.WB:consumers         8755404                       # num instructions consuming a value
system.switch_cpus_1.iew.WB:count            11858189                       # cumulative count of insts written-back
system.switch_cpus_1.iew.WB:fanout           0.765336                       # average fanout of values written-back
system.switch_cpus_1.iew.WB:penalized               0                       # number of instrctions required to write to 'other' IQ
system.switch_cpus_1.iew.WB:penalized_rate            0                       # fraction of instructions written-back that wrote to 'other' IQ
system.switch_cpus_1.iew.WB:producers         6700829                       # num instructions producing a value
system.switch_cpus_1.iew.WB:rate             1.413375                       # insts written-back per cycle
system.switch_cpus_1.iew.WB:sent             11867308                       # cumulative count of insts sent to commit
system.switch_cpus_1.iew.branchMispredicts       174360                       # Number of branch mispredicts detected at execute
system.switch_cpus_1.iew.iewBlockCycles          4941                       # Number of cycles IEW is blocking
system.switch_cpus_1.iew.iewDispLoadInsts      2006241                       # Number of dispatched load instructions
system.switch_cpus_1.iew.iewDispNonSpecInsts            0                       # Number of dispatched non-speculative instructions
system.switch_cpus_1.iew.iewDispSquashedInsts       392556                       # Number of squashed instructions skipped by dispatch
system.switch_cpus_1.iew.iewDispStoreInsts      1715126                       # Number of dispatched store instructions
system.switch_cpus_1.iew.iewDispatchedInsts     13404405                       # Number of instructions dispatched to IQ
system.switch_cpus_1.iew.iewExecLoadInsts      1918292                       # Number of load instructions executed
system.switch_cpus_1.iew.iewExecSquashedInsts       154765                       # Number of squashed instructions skipped in execute
system.switch_cpus_1.iew.iewExecutedInsts     11933815                       # Number of executed instructions
system.switch_cpus_1.iew.iewIQFullEvents           74                       # Number of times the IQ has become full, causing a stall
system.switch_cpus_1.iew.iewIdleCycles              0                       # Number of cycles IEW is idle
system.switch_cpus_1.iew.iewLSQFullEvents            0                       # Number of times the LSQ has become full, causing a stall
system.switch_cpus_1.iew.iewSquashCycles       487803                       # Number of cycles IEW is squashing
system.switch_cpus_1.iew.iewUnblockCycles          134                       # Number of cycles IEW is unblocking
system.switch_cpus_1.iew.lsq.thread.0.blockedLoads            0                       # Number of blocked loads due to partial load-store forwarding
system.switch_cpus_1.iew.lsq.thread.0.cacheBlocked          528                       # Number of times an access to memory failed due to the cache being blocked
system.switch_cpus_1.iew.lsq.thread.0.forwLoads       125467                       # Number of loads that had data forwarded from stores
system.switch_cpus_1.iew.lsq.thread.0.ignoredResponses        10656                       # Number of memory responses ignored because the instruction is squashed
system.switch_cpus_1.iew.lsq.thread.0.invAddrLoads            0                       # Number of loads ignored due to an invalid address
system.switch_cpus_1.iew.lsq.thread.0.invAddrSwpfs            0                       # Number of software prefetches ignored due to an invalid address
system.switch_cpus_1.iew.lsq.thread.0.memOrderViolation        12763                       # Number of memory ordering violations
system.switch_cpus_1.iew.lsq.thread.0.rescheduledLoads            0                       # Number of loads that were rescheduled
system.switch_cpus_1.iew.lsq.thread.0.squashedLoads       399658                       # Number of loads squashed
system.switch_cpus_1.iew.lsq.thread.0.squashedStores       317704                       # Number of stores squashed
system.switch_cpus_1.iew.memOrderViolationEvents        12763                       # Number of memory order violations
system.switch_cpus_1.iew.predictedNotTakenIncorrect        28682                       # Number of branches that were predicted not taken incorrectly
system.switch_cpus_1.iew.predictedTakenIncorrect       145678                       # Number of branches that were predicted taken incorrectly
system.switch_cpus_1.ipc                     1.191898                       # IPC: Instructions Per Cycle
system.switch_cpus_1.ipc_total               1.191898                       # IPC: Total IPC of All Threads
system.switch_cpus_1.iq.ISSUE:FU_type_0::No_OpClass            0      0.00%      0.00% # Type of FU issued
system.switch_cpus_1.iq.ISSUE:FU_type_0::IntAlu      8493030     70.26%     70.26% # Type of FU issued
system.switch_cpus_1.iq.ISSUE:FU_type_0::IntMult            0      0.00%     70.26% # Type of FU issued
system.switch_cpus_1.iq.ISSUE:FU_type_0::IntDiv            0      0.00%     70.26% # Type of FU issued
system.switch_cpus_1.iq.ISSUE:FU_type_0::FloatAdd            0      0.00%     70.26% # Type of FU issued
system.switch_cpus_1.iq.ISSUE:FU_type_0::FloatCmp            0      0.00%     70.26% # Type of FU issued
system.switch_cpus_1.iq.ISSUE:FU_type_0::FloatCvt            0      0.00%     70.26% # Type of FU issued
system.switch_cpus_1.iq.ISSUE:FU_type_0::FloatMult            0      0.00%     70.26% # Type of FU issued
system.switch_cpus_1.iq.ISSUE:FU_type_0::FloatDiv            0      0.00%     70.26% # Type of FU issued
system.switch_cpus_1.iq.ISSUE:FU_type_0::FloatSqrt            0      0.00%     70.26% # Type of FU issued
system.switch_cpus_1.iq.ISSUE:FU_type_0::MemRead      1933413     15.99%     86.25% # Type of FU issued
system.switch_cpus_1.iq.ISSUE:FU_type_0::MemWrite      1662138     13.75%    100.00% # Type of FU issued
system.switch_cpus_1.iq.ISSUE:FU_type_0::IprAccess            0      0.00%    100.00% # Type of FU issued
system.switch_cpus_1.iq.ISSUE:FU_type_0::InstPrefetch            0      0.00%    100.00% # Type of FU issued
system.switch_cpus_1.iq.ISSUE:FU_type_0::total     12088581                       # Type of FU issued
system.switch_cpus_1.iq.ISSUE:fu_busy_cnt         5467                       # FU busy when requested
system.switch_cpus_1.iq.ISSUE:fu_busy_rate     0.000452                       # FU busy rate (busy events/executed inst)
system.switch_cpus_1.iq.ISSUE:fu_full::No_OpClass            0      0.00%      0.00% # attempts to use FU when none available
system.switch_cpus_1.iq.ISSUE:fu_full::IntAlu         5460     99.87%     99.87% # attempts to use FU when none available
system.switch_cpus_1.iq.ISSUE:fu_full::IntMult            0      0.00%     99.87% # attempts to use FU when none available
system.switch_cpus_1.iq.ISSUE:fu_full::IntDiv            0      0.00%     99.87% # attempts to use FU when none available
system.switch_cpus_1.iq.ISSUE:fu_full::FloatAdd            0      0.00%     99.87% # attempts to use FU when none available
system.switch_cpus_1.iq.ISSUE:fu_full::FloatCmp            0      0.00%     99.87% # attempts to use FU when none available
system.switch_cpus_1.iq.ISSUE:fu_full::FloatCvt            0      0.00%     99.87% # attempts to use FU when none available
system.switch_cpus_1.iq.ISSUE:fu_full::FloatMult            0      0.00%     99.87% # attempts to use FU when none available
system.switch_cpus_1.iq.ISSUE:fu_full::FloatDiv            0      0.00%     99.87% # attempts to use FU when none available
system.switch_cpus_1.iq.ISSUE:fu_full::FloatSqrt            0      0.00%     99.87% # attempts to use FU when none available
system.switch_cpus_1.iq.ISSUE:fu_full::MemRead            6      0.11%     99.98% # attempts to use FU when none available
system.switch_cpus_1.iq.ISSUE:fu_full::MemWrite            1      0.02%    100.00% # attempts to use FU when none available
system.switch_cpus_1.iq.ISSUE:fu_full::IprAccess            0      0.00%    100.00% # attempts to use FU when none available
system.switch_cpus_1.iq.ISSUE:fu_full::InstPrefetch            0      0.00%    100.00% # attempts to use FU when none available
system.switch_cpus_1.iq.ISSUE:issued_per_cycle::samples      8310337                       # Number of insts issued each cycle
system.switch_cpus_1.iq.ISSUE:issued_per_cycle::mean     1.454644                       # Number of insts issued each cycle
system.switch_cpus_1.iq.ISSUE:issued_per_cycle::stdev     1.313380                       # Number of insts issued each cycle
system.switch_cpus_1.iq.ISSUE:issued_per_cycle::underflows            0      0.00%      0.00% # Number of insts issued each cycle
system.switch_cpus_1.iq.ISSUE:issued_per_cycle::0      2215383     26.66%     26.66% # Number of insts issued each cycle
system.switch_cpus_1.iq.ISSUE:issued_per_cycle::1      2546408     30.64%     57.30% # Number of insts issued each cycle
system.switch_cpus_1.iq.ISSUE:issued_per_cycle::2      2333483     28.08%     85.38% # Number of insts issued each cycle
system.switch_cpus_1.iq.ISSUE:issued_per_cycle::3       189426      2.28%     87.66% # Number of insts issued each cycle
system.switch_cpus_1.iq.ISSUE:issued_per_cycle::4       858309     10.33%     97.99% # Number of insts issued each cycle
system.switch_cpus_1.iq.ISSUE:issued_per_cycle::5       135532      1.63%     99.62% # Number of insts issued each cycle
system.switch_cpus_1.iq.ISSUE:issued_per_cycle::6        26648      0.32%     99.94% # Number of insts issued each cycle
system.switch_cpus_1.iq.ISSUE:issued_per_cycle::7         5039      0.06%    100.00% # Number of insts issued each cycle
system.switch_cpus_1.iq.ISSUE:issued_per_cycle::8          109      0.00%    100.00% # Number of insts issued each cycle
system.switch_cpus_1.iq.ISSUE:issued_per_cycle::overflows            0      0.00%    100.00% # Number of insts issued each cycle
system.switch_cpus_1.iq.ISSUE:issued_per_cycle::min_value            0                       # Number of insts issued each cycle
system.switch_cpus_1.iq.ISSUE:issued_per_cycle::max_value            8                       # Number of insts issued each cycle
system.switch_cpus_1.iq.ISSUE:issued_per_cycle::total      8310337                       # Number of insts issued each cycle
system.switch_cpus_1.iq.ISSUE:rate           1.440836                       # Inst issue rate
system.switch_cpus_1.iq.iqInstsAdded         12528525                       # Number of instructions added to the IQ (excludes non-spec)
system.switch_cpus_1.iq.iqInstsIssued        12088581                       # Number of instructions issued
system.switch_cpus_1.iq.iqSquashedInstsExamined      2236677                       # Number of squashed instructions iterated over during squash; mainly for profiling
system.switch_cpus_1.iq.iqSquashedInstsIssued         1886                       # Number of squashed instructions issued
system.switch_cpus_1.iq.iqSquashedOperandsExamined       811683                       # Number of squashed operands that are examined and possibly removed from graph
system.switch_cpus_1.itb.data_accesses              0                       # DTB accesses
system.switch_cpus_1.itb.data_acv                   0                       # DTB access violations
system.switch_cpus_1.itb.data_hits                  0                       # DTB hits
system.switch_cpus_1.itb.data_misses                0                       # DTB misses
system.switch_cpus_1.itb.fetch_accesses       2241670                       # ITB accesses
system.switch_cpus_1.itb.fetch_acv                  0                       # ITB acv
system.switch_cpus_1.itb.fetch_hits           2241669                       # ITB hits
system.switch_cpus_1.itb.fetch_misses               1                       # ITB misses
system.switch_cpus_1.itb.read_accesses              0                       # DTB read accesses
system.switch_cpus_1.itb.read_acv                   0                       # DTB read access violations
system.switch_cpus_1.itb.read_hits                  0                       # DTB read hits
system.switch_cpus_1.itb.read_misses                0                       # DTB read misses
system.switch_cpus_1.itb.write_accesses             0                       # DTB write accesses
system.switch_cpus_1.itb.write_acv                  0                       # DTB write access violations
system.switch_cpus_1.itb.write_hits                 0                       # DTB write hits
system.switch_cpus_1.itb.write_misses               0                       # DTB write misses
system.switch_cpus_1.memDep0.conflictingLoads       616829                       # Number of conflicting loads.
system.switch_cpus_1.memDep0.conflictingStores       569106                       # Number of conflicting stores.
system.switch_cpus_1.memDep0.insertedLoads      2006241                       # Number of loads inserted to the mem dependence unit.
system.switch_cpus_1.memDep0.insertedStores      1715126                       # Number of stores inserted to the mem dependence unit.
system.switch_cpus_1.numCycles                8389978                       # number of cpu cycles simulated
system.switch_cpus_1.rename.RENAME:BlockCycles        58393                       # Number of cycles rename is blocking
system.switch_cpus_1.rename.RENAME:CommittedMaps      6978824                       # Number of HB maps that are committed
system.switch_cpus_1.rename.RENAME:IQFullEvents          296                       # Number of times rename has blocked due to IQ full
system.switch_cpus_1.rename.RENAME:IdleCycles      4539173                       # Number of cycles rename is idle
system.switch_cpus_1.rename.RENAME:LSQFullEvents        16320                       # Number of times rename has blocked due to LSQ full
system.switch_cpus_1.rename.RENAME:ROBFullEvents         3156                       # Number of times rename has blocked due to ROB full
system.switch_cpus_1.rename.RENAME:RenameLookups     19008266                       # Number of register rename lookups that rename has made
system.switch_cpus_1.rename.RENAME:RenamedInsts     14305849                       # Number of instructions processed by rename
system.switch_cpus_1.rename.RENAME:RenamedOperands      9342004                       # Number of destination operands rename has renamed
system.switch_cpus_1.rename.RENAME:RunCycles      3206131                       # Number of cycles rename is running
system.switch_cpus_1.rename.RENAME:SquashCycles       487803                       # Number of cycles rename is squashing
system.switch_cpus_1.rename.RENAME:UnblockCycles        18836                       # Number of cycles rename is unblocking
system.switch_cpus_1.rename.RENAME:UndoneMaps      2363167                       # Number of HB maps that are undone due to squashing
system.switch_cpus_1.rename.RENAME:serializeStallCycles            0                       # count of cycles rename stalled for serializing inst
system.switch_cpus_1.rename.RENAME:serializingInsts            0                       # count of serializing insts renamed
system.switch_cpus_1.rename.RENAME:skidInsts        37820                       # count of insts added to the skid buffer
system.switch_cpus_1.rename.RENAME:tempSerializingInsts            0                       # count of temporary serializing insts renamed
system.switch_cpus_1.timesIdled                  1458                       # Number of times that the entire CPU went into an idle state and unscheduled itself

---------- End Simulation Statistics   ----------
