
---------- Begin Simulation Statistics ----------
host_inst_rate                                 267798                       # Simulator instruction rate (inst/s)
host_mem_usage                                 397172                       # Number of bytes of host memory used
host_seconds                                    74.68                       # Real time elapsed on the host
host_tick_rate                              261681590                       # Simulator tick rate (ticks/s)
sim_freq                                 1000000000000                       # Frequency of simulated ticks
sim_insts                                    20000006                       # Number of instructions simulated
sim_seconds                                  0.019543                       # Number of seconds simulated
sim_ticks                                 19543346500                       # Number of ticks simulated
system.cpu.dcache.ReadReq_accesses            2923109                       # number of ReadReq accesses(hits+misses)
system.cpu.dcache.ReadReq_avg_miss_latency 21225.624729                       # average ReadReq miss latency
system.cpu.dcache.ReadReq_avg_mshr_miss_latency 11084.672400                       # average ReadReq mshr miss latency
system.cpu.dcache.ReadReq_hits                2777726                       # number of ReadReq hits
system.cpu.dcache.ReadReq_miss_latency     3085845000                       # number of ReadReq miss cycles
system.cpu.dcache.ReadReq_miss_rate          0.049736                       # miss rate for ReadReq accesses
system.cpu.dcache.ReadReq_misses               145383                       # number of ReadReq misses
system.cpu.dcache.ReadReq_mshr_hits             93170                       # number of ReadReq MSHR hits
system.cpu.dcache.ReadReq_mshr_miss_latency    578764000                       # number of ReadReq MSHR miss cycles
system.cpu.dcache.ReadReq_mshr_miss_rate     0.017862                       # mshr miss rate for ReadReq accesses
system.cpu.dcache.ReadReq_mshr_misses           52213                       # number of ReadReq MSHR misses
system.cpu.dcache.WriteReq_accesses           1252170                       # number of WriteReq accesses(hits+misses)
system.cpu.dcache.WriteReq_avg_miss_latency 48609.856593                       # average WriteReq miss latency
system.cpu.dcache.WriteReq_avg_mshr_miss_latency 44484.653914                       # average WriteReq mshr miss latency
system.cpu.dcache.WriteReq_hits               1068567                       # number of WriteReq hits
system.cpu.dcache.WriteReq_miss_latency    8924915500                       # number of WriteReq miss cycles
system.cpu.dcache.WriteReq_miss_rate         0.146628                       # miss rate for WriteReq accesses
system.cpu.dcache.WriteReq_misses              183603                       # number of WriteReq misses
system.cpu.dcache.WriteReq_mshr_hits           105342                       # number of WriteReq MSHR hits
system.cpu.dcache.WriteReq_mshr_miss_latency   3481413500                       # number of WriteReq MSHR miss cycles
system.cpu.dcache.WriteReq_mshr_miss_rate     0.062500                       # mshr miss rate for WriteReq accesses
system.cpu.dcache.WriteReq_mshr_misses          78261                       # number of WriteReq MSHR misses
system.cpu.dcache.avg_blocked_cycles::no_mshrs     no_value                       # average number of cycles each access was blocked
system.cpu.dcache.avg_blocked_cycles::no_targets 40854.461294                       # average number of cycles each access was blocked
system.cpu.dcache.avg_refs                  51.132899                       # Average number of references to valid blocks.
system.cpu.dcache.blocked::no_mshrs                 0                       # number of cycles access was blocked
system.cpu.dcache.blocked::no_targets           35214                       # number of cycles access was blocked
system.cpu.dcache.blocked_cycles::no_mshrs            0                       # number of cycles access was blocked
system.cpu.dcache.blocked_cycles::no_targets   1438649000                       # number of cycles access was blocked
system.cpu.dcache.cache_copies                      0                       # number of cache copies performed
system.cpu.dcache.demand_accesses             4175279                       # number of demand (read+write) accesses
system.cpu.dcache.demand_avg_miss_latency 36508.424371                       # average overall miss latency
system.cpu.dcache.demand_avg_mshr_miss_latency 31118.671153                       # average overall mshr miss latency
system.cpu.dcache.demand_hits                 3846293                       # number of demand (read+write) hits
system.cpu.dcache.demand_miss_latency     12010760500                       # number of demand (read+write) miss cycles
system.cpu.dcache.demand_miss_rate           0.078794                       # miss rate for demand accesses
system.cpu.dcache.demand_misses                328986                       # number of demand (read+write) misses
system.cpu.dcache.demand_mshr_hits             198512                       # number of demand (read+write) MSHR hits
system.cpu.dcache.demand_mshr_miss_latency   4060177500                       # number of demand (read+write) MSHR miss cycles
system.cpu.dcache.demand_mshr_miss_rate      0.031249                       # mshr miss rate for demand accesses
system.cpu.dcache.demand_mshr_misses           130474                       # number of demand (read+write) MSHR misses
system.cpu.dcache.fast_writes                       0                       # number of fast writes performed
system.cpu.dcache.mshr_cap_events                   0                       # number of times MSHR cap was activated
system.cpu.dcache.no_allocate_misses                0                       # Number of misses that were no-allocate
system.cpu.dcache.occ_%::0                   0.990403                       # Average percentage of cache occupancy
system.cpu.dcache.occ_blocks::0           1014.172555                       # Average occupied blocks per context
system.cpu.dcache.overall_accesses            4175279                       # number of overall (read+write) accesses
system.cpu.dcache.overall_avg_miss_latency 36508.424371                       # average overall miss latency
system.cpu.dcache.overall_avg_mshr_miss_latency 31118.671153                       # average overall mshr miss latency
system.cpu.dcache.overall_avg_mshr_uncacheable_latency     no_value                       # average overall mshr uncacheable latency
system.cpu.dcache.overall_hits                3846293                       # number of overall hits
system.cpu.dcache.overall_miss_latency    12010760500                       # number of overall miss cycles
system.cpu.dcache.overall_miss_rate          0.078794                       # miss rate for overall accesses
system.cpu.dcache.overall_misses               328986                       # number of overall misses
system.cpu.dcache.overall_mshr_hits            198512                       # number of overall MSHR hits
system.cpu.dcache.overall_mshr_miss_latency   4060177500                       # number of overall MSHR miss cycles
system.cpu.dcache.overall_mshr_miss_rate     0.031249                       # mshr miss rate for overall accesses
system.cpu.dcache.overall_mshr_misses          130474                       # number of overall MSHR misses
system.cpu.dcache.overall_mshr_uncacheable_latency            0                       # number of overall MSHR uncacheable cycles
system.cpu.dcache.overall_mshr_uncacheable_misses            0                       # number of overall MSHR uncacheable misses
system.cpu.dcache.prefetch_accuracy          no_value                       # ratio of good prefetches to total prefetches
system.cpu.dcache.prefetch_hits                     0                       # number of prefetched blocks that were accessed
system.cpu.dcache.replacements                  77276                       # number of replacements
system.cpu.dcache.sampled_refs                  78300                       # Sample count of references to valid blocks.
system.cpu.dcache.soft_prefetch_mshr_full            0                       # number of mshr full events for SW prefetching instrutions
system.cpu.dcache.tagsinuse               1014.172555                       # Cycle average of tags in use
system.cpu.dcache.total_refs                  4003706                       # Total number of references to valid blocks.
system.cpu.dcache.warmup_cycle           500382626000                       # Cycle when the warmup percentage was hit.
system.cpu.dcache.writebacks                    77244                       # number of writebacks
system.cpu.dtb.data_accesses                        0                       # DTB accesses
system.cpu.dtb.data_acv                             0                       # DTB access violations
system.cpu.dtb.data_hits                            0                       # DTB hits
system.cpu.dtb.data_misses                          0                       # DTB misses
system.cpu.dtb.fetch_accesses                       0                       # ITB accesses
system.cpu.dtb.fetch_acv                            0                       # ITB acv
system.cpu.dtb.fetch_hits                           0                       # ITB hits
system.cpu.dtb.fetch_misses                         0                       # ITB misses
system.cpu.dtb.read_accesses                        0                       # DTB read accesses
system.cpu.dtb.read_acv                             0                       # DTB read access violations
system.cpu.dtb.read_hits                            0                       # DTB read hits
system.cpu.dtb.read_misses                          0                       # DTB read misses
system.cpu.dtb.write_accesses                       0                       # DTB write accesses
system.cpu.dtb.write_acv                            0                       # DTB write access violations
system.cpu.dtb.write_hits                           0                       # DTB write hits
system.cpu.dtb.write_misses                         0                       # DTB write misses
system.cpu.icache.ReadReq_accesses           12539143                       # number of ReadReq accesses(hits+misses)
system.cpu.icache.ReadReq_avg_miss_latency        62700                       # average ReadReq miss latency
system.cpu.icache.ReadReq_avg_mshr_miss_latency 60866.666667                       # average ReadReq mshr miss latency
system.cpu.icache.ReadReq_hits               12539093                       # number of ReadReq hits
system.cpu.icache.ReadReq_miss_latency        3135000                       # number of ReadReq miss cycles
system.cpu.icache.ReadReq_miss_rate          0.000004                       # miss rate for ReadReq accesses
system.cpu.icache.ReadReq_misses                   50                       # number of ReadReq misses
system.cpu.icache.ReadReq_mshr_hits                 4                       # number of ReadReq MSHR hits
system.cpu.icache.ReadReq_mshr_miss_latency      2739000                       # number of ReadReq MSHR miss cycles
system.cpu.icache.ReadReq_mshr_miss_rate     0.000004                       # mshr miss rate for ReadReq accesses
system.cpu.icache.ReadReq_mshr_misses              45                       # number of ReadReq MSHR misses
system.cpu.icache.avg_blocked_cycles::no_mshrs     no_value                       # average number of cycles each access was blocked
system.cpu.icache.avg_blocked_cycles::no_targets     no_value                       # average number of cycles each access was blocked
system.cpu.icache.avg_refs               272588.978261                       # Average number of references to valid blocks.
system.cpu.icache.blocked::no_mshrs                 0                       # number of cycles access was blocked
system.cpu.icache.blocked::no_targets               0                       # number of cycles access was blocked
system.cpu.icache.blocked_cycles::no_mshrs            0                       # number of cycles access was blocked
system.cpu.icache.blocked_cycles::no_targets            0                       # number of cycles access was blocked
system.cpu.icache.cache_copies                      0                       # number of cache copies performed
system.cpu.icache.demand_accesses            12539143                       # number of demand (read+write) accesses
system.cpu.icache.demand_avg_miss_latency        62700                       # average overall miss latency
system.cpu.icache.demand_avg_mshr_miss_latency 60866.666667                       # average overall mshr miss latency
system.cpu.icache.demand_hits                12539093                       # number of demand (read+write) hits
system.cpu.icache.demand_miss_latency         3135000                       # number of demand (read+write) miss cycles
system.cpu.icache.demand_miss_rate           0.000004                       # miss rate for demand accesses
system.cpu.icache.demand_misses                    50                       # number of demand (read+write) misses
system.cpu.icache.demand_mshr_hits                  4                       # number of demand (read+write) MSHR hits
system.cpu.icache.demand_mshr_miss_latency      2739000                       # number of demand (read+write) MSHR miss cycles
system.cpu.icache.demand_mshr_miss_rate      0.000004                       # mshr miss rate for demand accesses
system.cpu.icache.demand_mshr_misses               45                       # number of demand (read+write) MSHR misses
system.cpu.icache.fast_writes                       0                       # number of fast writes performed
system.cpu.icache.mshr_cap_events                   0                       # number of times MSHR cap was activated
system.cpu.icache.no_allocate_misses                0                       # Number of misses that were no-allocate
system.cpu.icache.occ_%::0                   0.078829                       # Average percentage of cache occupancy
system.cpu.icache.occ_blocks::0             40.360202                       # Average occupied blocks per context
system.cpu.icache.overall_accesses           12539143                       # number of overall (read+write) accesses
system.cpu.icache.overall_avg_miss_latency        62700                       # average overall miss latency
system.cpu.icache.overall_avg_mshr_miss_latency 60866.666667                       # average overall mshr miss latency
system.cpu.icache.overall_avg_mshr_uncacheable_latency     no_value                       # average overall mshr uncacheable latency
system.cpu.icache.overall_hits               12539093                       # number of overall hits
system.cpu.icache.overall_miss_latency        3135000                       # number of overall miss cycles
system.cpu.icache.overall_miss_rate          0.000004                       # miss rate for overall accesses
system.cpu.icache.overall_misses                   50                       # number of overall misses
system.cpu.icache.overall_mshr_hits                 4                       # number of overall MSHR hits
system.cpu.icache.overall_mshr_miss_latency      2739000                       # number of overall MSHR miss cycles
system.cpu.icache.overall_mshr_miss_rate     0.000004                       # mshr miss rate for overall accesses
system.cpu.icache.overall_mshr_misses              45                       # number of overall MSHR misses
system.cpu.icache.overall_mshr_uncacheable_latency            0                       # number of overall MSHR uncacheable cycles
system.cpu.icache.overall_mshr_uncacheable_misses            0                       # number of overall MSHR uncacheable misses
system.cpu.icache.prefetch_accuracy          no_value                       # ratio of good prefetches to total prefetches
system.cpu.icache.prefetch_hits                     0                       # number of prefetched blocks that were accessed
system.cpu.icache.replacements                      0                       # number of replacements
system.cpu.icache.sampled_refs                     46                       # Sample count of references to valid blocks.
system.cpu.icache.soft_prefetch_mshr_full            0                       # number of mshr full events for SW prefetching instrutions
system.cpu.icache.tagsinuse                 40.360202                       # Cycle average of tags in use
system.cpu.icache.total_refs                 12539093                       # Total number of references to valid blocks.
system.cpu.icache.warmup_cycle                      0                       # Cycle when the warmup percentage was hit.
system.cpu.icache.writebacks                        0                       # number of writebacks
system.cpu.idle_fraction                            0                       # Percentage of idle cycles
system.cpu.itb.data_accesses                        0                       # DTB accesses
system.cpu.itb.data_acv                             0                       # DTB access violations
system.cpu.itb.data_hits                            0                       # DTB hits
system.cpu.itb.data_misses                          0                       # DTB misses
system.cpu.itb.fetch_accesses                       2                       # ITB accesses
system.cpu.itb.fetch_acv                            0                       # ITB acv
system.cpu.itb.fetch_hits                           2                       # ITB hits
system.cpu.itb.fetch_misses                         0                       # ITB misses
system.cpu.itb.read_accesses                        0                       # DTB read accesses
system.cpu.itb.read_acv                             0                       # DTB read access violations
system.cpu.itb.read_hits                            0                       # DTB read hits
system.cpu.itb.read_misses                          0                       # DTB read misses
system.cpu.itb.write_accesses                       0                       # DTB write accesses
system.cpu.itb.write_acv                            0                       # DTB write access violations
system.cpu.itb.write_hits                           0                       # DTB write hits
system.cpu.itb.write_misses                         0                       # DTB write misses
system.cpu.not_idle_fraction                        1                       # Percentage of non-idle cycles
system.cpu.numCycles                                2                       # number of cpu cycles simulated
system.cpu.num_insts                                2                       # Number of instructions executed
system.cpu.num_refs                                 0                       # Number of memory references
system.cpu.workload.PROG:num_syscalls               0                       # Number of system calls
system.l2.HardPFReq_avg_mshr_miss_latency 34247.302387                       # average HardPFReq mshr miss latency
system.l2.HardPFReq_mshr_miss_latency      2681461035                       # number of HardPFReq MSHR miss cycles
system.l2.HardPFReq_mshr_miss_rate                inf                       # mshr miss rate for HardPFReq accesses
system.l2.HardPFReq_mshr_misses                 78297                       # number of HardPFReq MSHR misses
system.l2.ReadExReq_accesses                    26088                       # number of ReadExReq accesses(hits+misses)
system.l2.ReadExReq_avg_miss_latency     55583.333333                       # average ReadExReq miss latency
system.l2.ReadExReq_avg_mshr_miss_latency        40000                       # average ReadExReq mshr miss latency
system.l2.ReadExReq_hits                        26082                       # number of ReadExReq hits
system.l2.ReadExReq_miss_latency               333500                       # number of ReadExReq miss cycles
system.l2.ReadExReq_miss_rate                0.000230                       # miss rate for ReadExReq accesses
system.l2.ReadExReq_misses                          6                       # number of ReadExReq misses
system.l2.ReadExReq_mshr_miss_latency          240000                       # number of ReadExReq MSHR miss cycles
system.l2.ReadExReq_mshr_miss_rate           0.000230                       # mshr miss rate for ReadExReq accesses
system.l2.ReadExReq_mshr_misses                     6                       # number of ReadExReq MSHR misses
system.l2.ReadReq_accesses                      52258                       # number of ReadReq accesses(hits+misses)
system.l2.ReadReq_avg_miss_latency       59269.230769                       # average ReadReq miss latency
system.l2.ReadReq_avg_mshr_miss_latency  44367.187500                       # average ReadReq mshr miss latency
system.l2.ReadReq_hits                          52193                       # number of ReadReq hits
system.l2.ReadReq_miss_latency                3852500                       # number of ReadReq miss cycles
system.l2.ReadReq_miss_rate                  0.001244                       # miss rate for ReadReq accesses
system.l2.ReadReq_misses                           65                       # number of ReadReq misses
system.l2.ReadReq_mshr_miss_latency           2839500                       # number of ReadReq MSHR miss cycles
system.l2.ReadReq_mshr_miss_rate             0.001225                       # mshr miss rate for ReadReq accesses
system.l2.ReadReq_mshr_misses                      64                       # number of ReadReq MSHR misses
system.l2.UpgradeReq_accesses                   52173                       # number of UpgradeReq accesses(hits+misses)
system.l2.UpgradeReq_avg_miss_latency    60199.221820                       # average UpgradeReq miss latency
system.l2.UpgradeReq_avg_mshr_miss_latency 44478.619209                       # average UpgradeReq mshr miss latency
system.l2.UpgradeReq_miss_latency          3140774000                       # number of UpgradeReq miss cycles
system.l2.UpgradeReq_miss_rate                      1                       # miss rate for UpgradeReq accesses
system.l2.UpgradeReq_misses                     52173                       # number of UpgradeReq misses
system.l2.UpgradeReq_mshr_miss_latency     2320583000                       # number of UpgradeReq MSHR miss cycles
system.l2.UpgradeReq_mshr_miss_rate                 1                       # mshr miss rate for UpgradeReq accesses
system.l2.UpgradeReq_mshr_misses                52173                       # number of UpgradeReq MSHR misses
system.l2.Writeback_accesses                    77244                       # number of Writeback accesses(hits+misses)
system.l2.Writeback_hits                        77244                       # number of Writeback hits
system.l2.avg_blocked_cycles::no_mshrs       no_value                       # average number of cycles each access was blocked
system.l2.avg_blocked_cycles::no_targets     no_value                       # average number of cycles each access was blocked
system.l2.avg_refs                           0.016095                       # Average number of references to valid blocks.
system.l2.blocked::no_mshrs                         0                       # number of cycles access was blocked
system.l2.blocked::no_targets                       0                       # number of cycles access was blocked
system.l2.blocked_cycles::no_mshrs                  0                       # number of cycles access was blocked
system.l2.blocked_cycles::no_targets                0                       # number of cycles access was blocked
system.l2.cache_copies                              0                       # number of cache copies performed
system.l2.demand_accesses                       78346                       # number of demand (read+write) accesses
system.l2.demand_avg_miss_latency        58957.746479                       # average overall miss latency
system.l2.demand_avg_mshr_miss_latency   43992.857143                       # average overall mshr miss latency
system.l2.demand_hits                           78275                       # number of demand (read+write) hits
system.l2.demand_miss_latency                 4186000                       # number of demand (read+write) miss cycles
system.l2.demand_miss_rate                   0.000906                       # miss rate for demand accesses
system.l2.demand_misses                            71                       # number of demand (read+write) misses
system.l2.demand_mshr_hits                          0                       # number of demand (read+write) MSHR hits
system.l2.demand_mshr_miss_latency            3079500                       # number of demand (read+write) MSHR miss cycles
system.l2.demand_mshr_miss_rate              0.000893                       # mshr miss rate for demand accesses
system.l2.demand_mshr_misses                       70                       # number of demand (read+write) MSHR misses
system.l2.fast_writes                               0                       # number of fast writes performed
system.l2.mshr_cap_events                           0                       # number of times MSHR cap was activated
system.l2.no_allocate_misses                        0                       # Number of misses that were no-allocate
system.l2.occ_%::0                           0.003815                       # Average percentage of cache occupancy
system.l2.occ_%::1                           0.452154                       # Average percentage of cache occupancy
system.l2.occ_blocks::0                     62.510970                       # Average occupied blocks per context
system.l2.occ_blocks::1                   7408.083244                       # Average occupied blocks per context
system.l2.overall_accesses                      78346                       # number of overall (read+write) accesses
system.l2.overall_avg_miss_latency       58957.746479                       # average overall miss latency
system.l2.overall_avg_mshr_miss_latency  34256.007439                       # average overall mshr miss latency
system.l2.overall_avg_mshr_uncacheable_latency     no_value                       # average overall mshr uncacheable latency
system.l2.overall_hits                          78275                       # number of overall hits
system.l2.overall_miss_latency                4186000                       # number of overall miss cycles
system.l2.overall_miss_rate                  0.000906                       # miss rate for overall accesses
system.l2.overall_misses                           71                       # number of overall misses
system.l2.overall_mshr_hits                         0                       # number of overall MSHR hits
system.l2.overall_mshr_miss_latency        2684540535                       # number of overall MSHR miss cycles
system.l2.overall_mshr_miss_rate             1.000268                       # mshr miss rate for overall accesses
system.l2.overall_mshr_misses                   78367                       # number of overall MSHR misses
system.l2.overall_mshr_uncacheable_latency            0                       # number of overall MSHR uncacheable cycles
system.l2.overall_mshr_uncacheable_misses            0                       # number of overall MSHR uncacheable misses
system.l2.prefetch_accuracy                  0.666207                       # ratio of good prefetches to total prefetches
system.l2.prefetch_hits                         52162                       # number of prefetched blocks that were accessed
system.l2.prefetcher.num_hwpf_already_in_prefetcher         4413                       # number of hwpf that were already in the prefetch queue
system.l2.prefetcher.num_hwpf_evicted               0                       # number of hwpf removed due to no buffer left
system.l2.prefetcher.num_hwpf_identified        82712                       # number of hwpf identified
system.l2.prefetcher.num_hwpf_issued            78299                       # number of hwpf issued
system.l2.prefetcher.num_hwpf_removed_MSHR_hit            0                       # number of hwpf removed because MSHR allocated
system.l2.prefetcher.num_hwpf_span_page             0                       # number of hwpf spanning a virtual page
system.l2.prefetcher.num_hwpf_squashed_from_miss            0                       # number of hwpf that got squashed due to a miss aborting calculation time
system.l2.replacements                          69104                       # number of replacements
system.l2.sampled_refs                          77351                       # Sample count of references to valid blocks.
system.l2.soft_prefetch_mshr_full                   0                       # number of mshr full events for SW prefetching instrutions
system.l2.tagsinuse                       7470.594214                       # Cycle average of tags in use
system.l2.total_refs                             1245                       # Total number of references to valid blocks.
system.l2.warmup_cycle                              0                       # Cycle when the warmup percentage was hit.
system.l2.writebacks                            69052                       # number of writebacks
system.switch_cpus.dtb.data_accesses          2101668                       # DTB accesses
system.switch_cpus.dtb.data_acv                     0                       # DTB access violations
system.switch_cpus.dtb.data_hits              2101344                       # DTB hits
system.switch_cpus.dtb.data_misses                324                       # DTB misses
system.switch_cpus.dtb.fetch_accesses               0                       # ITB accesses
system.switch_cpus.dtb.fetch_acv                    0                       # ITB acv
system.switch_cpus.dtb.fetch_hits                   0                       # ITB hits
system.switch_cpus.dtb.fetch_misses                 0                       # ITB misses
system.switch_cpus.dtb.read_accesses          1481486                       # DTB read accesses
system.switch_cpus.dtb.read_acv                     0                       # DTB read access violations
system.switch_cpus.dtb.read_hits              1481268                       # DTB read hits
system.switch_cpus.dtb.read_misses                218                       # DTB read misses
system.switch_cpus.dtb.write_accesses          620182                       # DTB write accesses
system.switch_cpus.dtb.write_acv                    0                       # DTB write access violations
system.switch_cpus.dtb.write_hits              620076                       # DTB write hits
system.switch_cpus.dtb.write_misses               106                       # DTB write misses
system.switch_cpus.idle_fraction                    1                       # Percentage of idle cycles
system.switch_cpus.itb.data_accesses                0                       # DTB accesses
system.switch_cpus.itb.data_acv                     0                       # DTB access violations
system.switch_cpus.itb.data_hits                    0                       # DTB hits
system.switch_cpus.itb.data_misses                  0                       # DTB misses
system.switch_cpus.itb.fetch_accesses        10000330                       # ITB accesses
system.switch_cpus.itb.fetch_acv                    0                       # ITB acv
system.switch_cpus.itb.fetch_hits            10000326                       # ITB hits
system.switch_cpus.itb.fetch_misses                 4                       # ITB misses
system.switch_cpus.itb.read_accesses                0                       # DTB read accesses
system.switch_cpus.itb.read_acv                     0                       # DTB read access violations
system.switch_cpus.itb.read_hits                    0                       # DTB read hits
system.switch_cpus.itb.read_misses                  0                       # DTB read misses
system.switch_cpus.itb.write_accesses               0                       # DTB write accesses
system.switch_cpus.itb.write_acv                    0                       # DTB write access violations
system.switch_cpus.itb.write_hits                   0                       # DTB write hits
system.switch_cpus.itb.write_misses                 0                       # DTB write misses
system.switch_cpus.not_idle_fraction                0                       # Percentage of non-idle cycles
system.switch_cpus.numCycles                 28282768                       # number of cpu cycles simulated
system.switch_cpus.num_insts                 10000001                       # Number of instructions executed
system.switch_cpus.num_refs                   2170562                       # Number of memory references
system.switch_cpus_1.BPredUnit.BTBCorrect            0                       # Number of correct BTB predictions (this stat may not work properly.
system.switch_cpus_1.BPredUnit.BTBHits        1226489                       # Number of BTB hits
system.switch_cpus_1.BPredUnit.BTBLookups      2367529                       # Number of BTB lookups
system.switch_cpus_1.BPredUnit.RASInCorrect            2                       # Number of incorrect RAS predictions.
system.switch_cpus_1.BPredUnit.condIncorrect       163021                       # Number of conditional branches incorrect
system.switch_cpus_1.BPredUnit.condPredicted      2052981                       # Number of conditional branches predicted
system.switch_cpus_1.BPredUnit.lookups        2760621                       # Number of BP lookups
system.switch_cpus_1.BPredUnit.usedRAS         240494                       # Number of times the RAS was used to get a target.
system.switch_cpus_1.commit.COM:branches      1390146                       # Number of branches committed
system.switch_cpus_1.commit.COM:bw_lim_events       519878                       # number cycles where commit BW limit reached
system.switch_cpus_1.commit.COM:bw_limited            0                       # number of insts not committed due to BW limits
system.switch_cpus_1.commit.COM:committed_per_cycle::samples      9963410                       # Number of insts commited each cycle
system.switch_cpus_1.commit.COM:committed_per_cycle::mean     1.023059                       # Number of insts commited each cycle
system.switch_cpus_1.commit.COM:committed_per_cycle::stdev     2.108092                       # Number of insts commited each cycle
system.switch_cpus_1.commit.COM:committed_per_cycle::underflows            0      0.00%      0.00% # Number of insts commited each cycle
system.switch_cpus_1.commit.COM:committed_per_cycle::0      6938313     69.64%     69.64% # Number of insts commited each cycle
system.switch_cpus_1.commit.COM:committed_per_cycle::1       964280      9.68%     79.32% # Number of insts commited each cycle
system.switch_cpus_1.commit.COM:committed_per_cycle::2       722480      7.25%     86.57% # Number of insts commited each cycle
system.switch_cpus_1.commit.COM:committed_per_cycle::3       273873      2.75%     89.32% # Number of insts commited each cycle
system.switch_cpus_1.commit.COM:committed_per_cycle::4       226948      2.28%     91.59% # Number of insts commited each cycle
system.switch_cpus_1.commit.COM:committed_per_cycle::5        91618      0.92%     92.51% # Number of insts commited each cycle
system.switch_cpus_1.commit.COM:committed_per_cycle::6       144750      1.45%     93.97% # Number of insts commited each cycle
system.switch_cpus_1.commit.COM:committed_per_cycle::7        81270      0.82%     94.78% # Number of insts commited each cycle
system.switch_cpus_1.commit.COM:committed_per_cycle::8       519878      5.22%    100.00% # Number of insts commited each cycle
system.switch_cpus_1.commit.COM:committed_per_cycle::overflows            0      0.00%    100.00% # Number of insts commited each cycle
system.switch_cpus_1.commit.COM:committed_per_cycle::min_value            0                       # Number of insts commited each cycle
system.switch_cpus_1.commit.COM:committed_per_cycle::max_value            8                       # Number of insts commited each cycle
system.switch_cpus_1.commit.COM:committed_per_cycle::total      9963410                       # Number of insts commited each cycle
system.switch_cpus_1.commit.COM:count        10193155                       # Number of instructions committed
system.switch_cpus_1.commit.COM:loads         1580244                       # Number of loads committed
system.switch_cpus_1.commit.COM:membars             0                       # Number of memory barriers committed
system.switch_cpus_1.commit.COM:refs          2212346                       # Number of memory references committed
system.switch_cpus_1.commit.COM:swp_count            0                       # Number of s/w prefetches committed
system.switch_cpus_1.commit.branchMispredicts       163010                       # The number of times a branch was mispredicted
system.switch_cpus_1.commit.commitCommittedInsts     10193155                       # The number of committed instructions
system.switch_cpus_1.commit.commitSquashedInsts      4313396                       # The number of squashed insts skipped by commit
system.switch_cpus_1.committedInsts          10000003                       # Number of Instructions Simulated
system.switch_cpus_1.committedInsts_total     10000003                       # Number of Instructions Simulated
system.switch_cpus_1.cpi                     1.080412                       # CPI: Cycles Per Instruction
system.switch_cpus_1.cpi_total               1.080412                       # CPI: Total CPI of All Threads
system.switch_cpus_1.decode.DECODE:BlockedCycles      1297615                       # Number of cycles decode is blocked
system.switch_cpus_1.decode.DECODE:BranchMispred           11                       # Number of times decode detected a branch misprediction
system.switch_cpus_1.decode.DECODE:BranchResolved       460880                       # Number of times decode resolved a branch
system.switch_cpus_1.decode.DECODE:DecodedInsts     19145638                       # Number of instructions handled by decode
system.switch_cpus_1.decode.DECODE:IdleCycles      5243365                       # Number of cycles decode is idle
system.switch_cpus_1.decode.DECODE:RunCycles      3404483                       # Number of cycles decode is running
system.switch_cpus_1.decode.DECODE:SquashCycles       806755                       # Number of cycles decode is squashing
system.switch_cpus_1.decode.DECODE:SquashedInsts           46                       # Number of squashed instructions handled by decode
system.switch_cpus_1.decode.DECODE:UnblockCycles        17946                       # Number of cycles decode is unblocking
system.switch_cpus_1.dtb.data_accesses        2860642                       # DTB accesses
system.switch_cpus_1.dtb.data_acv                   0                       # DTB access violations
system.switch_cpus_1.dtb.data_hits            2859049                       # DTB hits
system.switch_cpus_1.dtb.data_misses             1593                       # DTB misses
system.switch_cpus_1.dtb.fetch_accesses             0                       # ITB accesses
system.switch_cpus_1.dtb.fetch_acv                  0                       # ITB acv
system.switch_cpus_1.dtb.fetch_hits                 0                       # ITB hits
system.switch_cpus_1.dtb.fetch_misses               0                       # ITB misses
system.switch_cpus_1.dtb.read_accesses        2206011                       # DTB read accesses
system.switch_cpus_1.dtb.read_acv                   0                       # DTB read access violations
system.switch_cpus_1.dtb.read_hits            2204838                       # DTB read hits
system.switch_cpus_1.dtb.read_misses             1173                       # DTB read misses
system.switch_cpus_1.dtb.write_accesses        654631                       # DTB write accesses
system.switch_cpus_1.dtb.write_acv                  0                       # DTB write access violations
system.switch_cpus_1.dtb.write_hits            654211                       # DTB write hits
system.switch_cpus_1.dtb.write_misses             420                       # DTB write misses
system.switch_cpus_1.fetch.Branches           2760621                       # Number of branches that fetch encountered
system.switch_cpus_1.fetch.CacheLines         2538815                       # Number of cache lines fetched
system.switch_cpus_1.fetch.Cycles             6058646                       # Number of cycles fetch has run and was not squashing or blocked
system.switch_cpus_1.fetch.IcacheSquashes        47878                       # Number of outstanding Icache misses that were squashed
system.switch_cpus_1.fetch.Insts             19595333                       # Number of instructions fetch has processed
system.switch_cpus_1.fetch.SquashCycles        446570                       # Number of cycles fetch has spent squashing
system.switch_cpus_1.fetch.branchRate        0.255516                       # Number of branch fetches per cycle
system.switch_cpus_1.fetch.icacheStallCycles      2538815                       # Number of cycles fetch is stalled on an Icache miss
system.switch_cpus_1.fetch.predictedBranches      1466983                       # Number of branches that fetch has predicted taken
system.switch_cpus_1.fetch.rate              1.813691                       # Number of inst fetches per cycle
system.switch_cpus_1.fetch.rateDist::samples     10770165                       # Number of instructions fetched each cycle (Total)
system.switch_cpus_1.fetch.rateDist::mean     1.819409                       # Number of instructions fetched each cycle (Total)
system.switch_cpus_1.fetch.rateDist::stdev     2.938105                       # Number of instructions fetched each cycle (Total)
system.switch_cpus_1.fetch.rateDist::underflows            0      0.00%      0.00% # Number of instructions fetched each cycle (Total)
system.switch_cpus_1.fetch.rateDist::0        7250342     67.32%     67.32% # Number of instructions fetched each cycle (Total)
system.switch_cpus_1.fetch.rateDist::1         197576      1.83%     69.15% # Number of instructions fetched each cycle (Total)
system.switch_cpus_1.fetch.rateDist::2         181994      1.69%     70.84% # Number of instructions fetched each cycle (Total)
system.switch_cpus_1.fetch.rateDist::3         524445      4.87%     75.71% # Number of instructions fetched each cycle (Total)
system.switch_cpus_1.fetch.rateDist::4         437440      4.06%     79.77% # Number of instructions fetched each cycle (Total)
system.switch_cpus_1.fetch.rateDist::5         246746      2.29%     82.07% # Number of instructions fetched each cycle (Total)
system.switch_cpus_1.fetch.rateDist::6         414174      3.85%     85.91% # Number of instructions fetched each cycle (Total)
system.switch_cpus_1.fetch.rateDist::7         147684      1.37%     87.28% # Number of instructions fetched each cycle (Total)
system.switch_cpus_1.fetch.rateDist::8        1369764     12.72%    100.00% # Number of instructions fetched each cycle (Total)
system.switch_cpus_1.fetch.rateDist::overflows            0      0.00%    100.00% # Number of instructions fetched each cycle (Total)
system.switch_cpus_1.fetch.rateDist::min_value            0                       # Number of instructions fetched each cycle (Total)
system.switch_cpus_1.fetch.rateDist::max_value            8                       # Number of instructions fetched each cycle (Total)
system.switch_cpus_1.fetch.rateDist::total     10770165                       # Number of instructions fetched each cycle (Total)
system.switch_cpus_1.idleCycles                 33954                       # Total number of cycles that the CPU has spent unscheduled due to idling
system.switch_cpus_1.iew.EXEC:branches        1794663                       # Number of branches executed
system.switch_cpus_1.iew.EXEC:nop              264288                       # number of nop insts executed
system.switch_cpus_1.iew.EXEC:rate           1.121574                       # Inst execution rate
system.switch_cpus_1.iew.EXEC:refs            2931573                       # number of memory reference insts executed
system.switch_cpus_1.iew.EXEC:stores           654631                       # Number of stores executed
system.switch_cpus_1.iew.EXEC:swp                   0                       # number of swp insts executed
system.switch_cpus_1.iew.WB:consumers         9259421                       # num instructions consuming a value
system.switch_cpus_1.iew.WB:count            11561447                       # cumulative count of insts written-back
system.switch_cpus_1.iew.WB:fanout           0.681662                       # average fanout of values written-back
system.switch_cpus_1.iew.WB:penalized               0                       # number of instrctions required to write to 'other' IQ
system.switch_cpus_1.iew.WB:penalized_rate            0                       # fraction of instructions written-back that wrote to 'other' IQ
system.switch_cpus_1.iew.WB:producers         6311800                       # num instructions producing a value
system.switch_cpus_1.iew.WB:rate             1.070096                       # insts written-back per cycle
system.switch_cpus_1.iew.WB:sent             11575246                       # cumulative count of insts sent to commit
system.switch_cpus_1.iew.branchMispredicts       183137                       # Number of branch mispredicts detected at execute
system.switch_cpus_1.iew.iewBlockCycles        576905                       # Number of cycles IEW is blocking
system.switch_cpus_1.iew.iewDispLoadInsts      2425854                       # Number of dispatched load instructions
system.switch_cpus_1.iew.iewDispNonSpecInsts            0                       # Number of dispatched non-speculative instructions
system.switch_cpus_1.iew.iewDispSquashedInsts      1421076                       # Number of squashed instructions skipped by dispatch
system.switch_cpus_1.iew.iewDispStoreInsts       750091                       # Number of dispatched store instructions
system.switch_cpus_1.iew.iewDispatchedInsts     14512955                       # Number of instructions dispatched to IQ
system.switch_cpus_1.iew.iewExecLoadInsts      2276942                       # Number of load instructions executed
system.switch_cpus_1.iew.iewExecSquashedInsts       369464                       # Number of squashed instructions skipped in execute
system.switch_cpus_1.iew.iewExecutedInsts     12117624                       # Number of executed instructions
system.switch_cpus_1.iew.iewIQFullEvents       137406                       # Number of times the IQ has become full, causing a stall
system.switch_cpus_1.iew.iewIdleCycles              0                       # Number of cycles IEW is idle
system.switch_cpus_1.iew.iewLSQFullEvents            0                       # Number of times the LSQ has become full, causing a stall
system.switch_cpus_1.iew.iewSquashCycles       806755                       # Number of cycles IEW is squashing
system.switch_cpus_1.iew.iewUnblockCycles       141289                       # Number of cycles IEW is unblocking
system.switch_cpus_1.iew.lsq.thread.0.blockedLoads            0                       # Number of blocked loads due to partial load-store forwarding
system.switch_cpus_1.iew.lsq.thread.0.cacheBlocked       528413                       # Number of times an access to memory failed due to the cache being blocked
system.switch_cpus_1.iew.lsq.thread.0.forwLoads       252103                       # Number of loads that had data forwarded from stores
system.switch_cpus_1.iew.lsq.thread.0.ignoredResponses            9                       # Number of memory responses ignored because the instruction is squashed
system.switch_cpus_1.iew.lsq.thread.0.invAddrLoads            0                       # Number of loads ignored due to an invalid address
system.switch_cpus_1.iew.lsq.thread.0.invAddrSwpfs            0                       # Number of software prefetches ignored due to an invalid address
system.switch_cpus_1.iew.lsq.thread.0.memOrderViolation          128                       # Number of memory ordering violations
system.switch_cpus_1.iew.lsq.thread.0.rescheduledLoads            0                       # Number of loads that were rescheduled
system.switch_cpus_1.iew.lsq.thread.0.squashedLoads       845587                       # Number of loads squashed
system.switch_cpus_1.iew.lsq.thread.0.squashedStores       117985                       # Number of stores squashed
system.switch_cpus_1.iew.memOrderViolationEvents          128                       # Number of memory order violations
system.switch_cpus_1.iew.predictedNotTakenIncorrect        41661                       # Number of branches that were predicted not taken incorrectly
system.switch_cpus_1.iew.predictedTakenIncorrect       141476                       # Number of branches that were predicted taken incorrectly
system.switch_cpus_1.ipc                     0.925573                       # IPC: Instructions Per Cycle
system.switch_cpus_1.ipc_total               0.925573                       # IPC: Total IPC of All Threads
system.switch_cpus_1.iq.ISSUE:FU_type_0::No_OpClass            0      0.00%      0.00% # Type of FU issued
system.switch_cpus_1.iq.ISSUE:FU_type_0::IntAlu      4898057     39.22%     39.22% # Type of FU issued
system.switch_cpus_1.iq.ISSUE:FU_type_0::IntMult        35126      0.28%     39.51% # Type of FU issued
system.switch_cpus_1.iq.ISSUE:FU_type_0::IntDiv            0      0.00%     39.51% # Type of FU issued
system.switch_cpus_1.iq.ISSUE:FU_type_0::FloatAdd      2270299     18.18%     57.69% # Type of FU issued
system.switch_cpus_1.iq.ISSUE:FU_type_0::FloatCmp       258480      2.07%     59.76% # Type of FU issued
system.switch_cpus_1.iq.ISSUE:FU_type_0::FloatCvt       106558      0.85%     60.61% # Type of FU issued
system.switch_cpus_1.iq.ISSUE:FU_type_0::FloatMult      1500001     12.01%     72.62% # Type of FU issued
system.switch_cpus_1.iq.ISSUE:FU_type_0::FloatDiv       352939      2.83%     75.45% # Type of FU issued
system.switch_cpus_1.iq.ISSUE:FU_type_0::FloatSqrt        35119      0.28%     75.73% # Type of FU issued
system.switch_cpus_1.iq.ISSUE:FU_type_0::MemRead      2373934     19.01%     94.74% # Type of FU issued
system.switch_cpus_1.iq.ISSUE:FU_type_0::MemWrite       656578      5.26%    100.00% # Type of FU issued
system.switch_cpus_1.iq.ISSUE:FU_type_0::IprAccess            0      0.00%    100.00% # Type of FU issued
system.switch_cpus_1.iq.ISSUE:FU_type_0::InstPrefetch            0      0.00%    100.00% # Type of FU issued
system.switch_cpus_1.iq.ISSUE:FU_type_0::total     12487091                       # Type of FU issued
system.switch_cpus_1.iq.ISSUE:fu_busy_cnt       483370                       # FU busy when requested
system.switch_cpus_1.iq.ISSUE:fu_busy_rate     0.038710                       # FU busy rate (busy events/executed inst)
system.switch_cpus_1.iq.ISSUE:fu_full::No_OpClass            0      0.00%      0.00% # attempts to use FU when none available
system.switch_cpus_1.iq.ISSUE:fu_full::IntAlu        16059      3.32%      3.32% # attempts to use FU when none available
system.switch_cpus_1.iq.ISSUE:fu_full::IntMult            0      0.00%      3.32% # attempts to use FU when none available
system.switch_cpus_1.iq.ISSUE:fu_full::IntDiv            0      0.00%      3.32% # attempts to use FU when none available
system.switch_cpus_1.iq.ISSUE:fu_full::FloatAdd         4564      0.94%      4.27% # attempts to use FU when none available
system.switch_cpus_1.iq.ISSUE:fu_full::FloatCmp           34      0.01%      4.27% # attempts to use FU when none available
system.switch_cpus_1.iq.ISSUE:fu_full::FloatCvt            0      0.00%      4.27% # attempts to use FU when none available
system.switch_cpus_1.iq.ISSUE:fu_full::FloatMult       268880     55.63%     59.90% # attempts to use FU when none available
system.switch_cpus_1.iq.ISSUE:fu_full::FloatDiv       114287     23.64%     83.54% # attempts to use FU when none available
system.switch_cpus_1.iq.ISSUE:fu_full::FloatSqrt            0      0.00%     83.54% # attempts to use FU when none available
system.switch_cpus_1.iq.ISSUE:fu_full::MemRead        78755     16.29%     99.84% # attempts to use FU when none available
system.switch_cpus_1.iq.ISSUE:fu_full::MemWrite          791      0.16%    100.00% # attempts to use FU when none available
system.switch_cpus_1.iq.ISSUE:fu_full::IprAccess            0      0.00%    100.00% # attempts to use FU when none available
system.switch_cpus_1.iq.ISSUE:fu_full::InstPrefetch            0      0.00%    100.00% # attempts to use FU when none available
system.switch_cpus_1.iq.ISSUE:issued_per_cycle::samples     10770165                       # Number of insts issued each cycle
system.switch_cpus_1.iq.ISSUE:issued_per_cycle::mean     1.159415                       # Number of insts issued each cycle
system.switch_cpus_1.iq.ISSUE:issued_per_cycle::stdev     1.602949                       # Number of insts issued each cycle
system.switch_cpus_1.iq.ISSUE:issued_per_cycle::underflows            0      0.00%      0.00% # Number of insts issued each cycle
system.switch_cpus_1.iq.ISSUE:issued_per_cycle::0      5668943     52.64%     52.64% # Number of insts issued each cycle
system.switch_cpus_1.iq.ISSUE:issued_per_cycle::1      1741649     16.17%     68.81% # Number of insts issued each cycle
system.switch_cpus_1.iq.ISSUE:issued_per_cycle::2      1370211     12.72%     81.53% # Number of insts issued each cycle
system.switch_cpus_1.iq.ISSUE:issued_per_cycle::3       856333      7.95%     89.48% # Number of insts issued each cycle
system.switch_cpus_1.iq.ISSUE:issued_per_cycle::4       589845      5.48%     94.96% # Number of insts issued each cycle
system.switch_cpus_1.iq.ISSUE:issued_per_cycle::5       283505      2.63%     97.59% # Number of insts issued each cycle
system.switch_cpus_1.iq.ISSUE:issued_per_cycle::6       175864      1.63%     99.22% # Number of insts issued each cycle
system.switch_cpus_1.iq.ISSUE:issued_per_cycle::7        66588      0.62%     99.84% # Number of insts issued each cycle
system.switch_cpus_1.iq.ISSUE:issued_per_cycle::8        17227      0.16%    100.00% # Number of insts issued each cycle
system.switch_cpus_1.iq.ISSUE:issued_per_cycle::overflows            0      0.00%    100.00% # Number of insts issued each cycle
system.switch_cpus_1.iq.ISSUE:issued_per_cycle::min_value            0                       # Number of insts issued each cycle
system.switch_cpus_1.iq.ISSUE:issued_per_cycle::max_value            8                       # Number of insts issued each cycle
system.switch_cpus_1.iq.ISSUE:issued_per_cycle::total     10770165                       # Number of insts issued each cycle
system.switch_cpus_1.iq.ISSUE:rate           1.155771                       # Inst issue rate
system.switch_cpus_1.iq.iqInstsAdded         14248667                       # Number of instructions added to the IQ (excludes non-spec)
system.switch_cpus_1.iq.iqInstsIssued        12487091                       # Number of instructions issued
system.switch_cpus_1.iq.iqSquashedInstsExamined      4248467                       # Number of squashed instructions iterated over during squash; mainly for profiling
system.switch_cpus_1.iq.iqSquashedInstsIssued        66956                       # Number of squashed instructions issued
system.switch_cpus_1.iq.iqSquashedOperandsExamined      3796877                       # Number of squashed operands that are examined and possibly removed from graph
system.switch_cpus_1.itb.data_accesses              0                       # DTB accesses
system.switch_cpus_1.itb.data_acv                   0                       # DTB access violations
system.switch_cpus_1.itb.data_hits                  0                       # DTB hits
system.switch_cpus_1.itb.data_misses                0                       # DTB misses
system.switch_cpus_1.itb.fetch_accesses       2538823                       # ITB accesses
system.switch_cpus_1.itb.fetch_acv                  0                       # ITB acv
system.switch_cpus_1.itb.fetch_hits           2538815                       # ITB hits
system.switch_cpus_1.itb.fetch_misses               8                       # ITB misses
system.switch_cpus_1.itb.read_accesses              0                       # DTB read accesses
system.switch_cpus_1.itb.read_acv                   0                       # DTB read access violations
system.switch_cpus_1.itb.read_hits                  0                       # DTB read hits
system.switch_cpus_1.itb.read_misses                0                       # DTB read misses
system.switch_cpus_1.itb.write_accesses             0                       # DTB write accesses
system.switch_cpus_1.itb.write_acv                  0                       # DTB write access violations
system.switch_cpus_1.itb.write_hits                 0                       # DTB write hits
system.switch_cpus_1.itb.write_misses               0                       # DTB write misses
system.switch_cpus_1.memDep0.conflictingLoads       561848                       # Number of conflicting loads.
system.switch_cpus_1.memDep0.conflictingStores       131627                       # Number of conflicting stores.
system.switch_cpus_1.memDep0.insertedLoads      2425854                       # Number of loads inserted to the mem dependence unit.
system.switch_cpus_1.memDep0.insertedStores       750091                       # Number of stores inserted to the mem dependence unit.
system.switch_cpus_1.numCycles               10804119                       # number of cpu cycles simulated
system.switch_cpus_1.rename.RENAME:BlockCycles       989043                       # Number of cycles rename is blocking
system.switch_cpus_1.rename.RENAME:CommittedMaps      8012869                       # Number of HB maps that are committed
system.switch_cpus_1.rename.RENAME:IQFullEvents       143008                       # Number of times rename has blocked due to IQ full
system.switch_cpus_1.rename.RENAME:IdleCycles      5411072                       # Number of cycles rename is idle
system.switch_cpus_1.rename.RENAME:LSQFullEvents       106701                       # Number of times rename has blocked due to LSQ full
system.switch_cpus_1.rename.RENAME:ROBFullEvents          426                       # Number of times rename has blocked due to ROB full
system.switch_cpus_1.rename.RENAME:RenameLookups     27994870                       # Number of register rename lookups that rename has made
system.switch_cpus_1.rename.RENAME:RenamedInsts     18586944                       # Number of instructions processed by rename
system.switch_cpus_1.rename.RENAME:RenamedOperands     14954628                       # Number of destination operands rename has renamed
system.switch_cpus_1.rename.RENAME:RunCycles      3275957                       # Number of cycles rename is running
system.switch_cpus_1.rename.RENAME:SquashCycles       806755                       # Number of cycles rename is squashing
system.switch_cpus_1.rename.RENAME:UnblockCycles       287337                       # Number of cycles rename is unblocking
system.switch_cpus_1.rename.RENAME:UndoneMaps      6941658                       # Number of HB maps that are undone due to squashing
system.switch_cpus_1.rename.RENAME:serializeStallCycles            0                       # count of cycles rename stalled for serializing inst
system.switch_cpus_1.rename.RENAME:serializingInsts            0                       # count of serializing insts renamed
system.switch_cpus_1.rename.RENAME:skidInsts       749300                       # count of insts added to the skid buffer
system.switch_cpus_1.rename.RENAME:tempSerializingInsts            0                       # count of temporary serializing insts renamed
system.switch_cpus_1.timesIdled                 11039                       # Number of times that the entire CPU went into an idle state and unscheduled itself

---------- End Simulation Statistics   ----------
