
---------- Begin Simulation Statistics ----------
host_inst_rate                                 479140                       # Simulator instruction rate (inst/s)
host_mem_usage                                 402616                       # Number of bytes of host memory used
host_seconds                                    41.74                       # Real time elapsed on the host
host_tick_rate                              428353713                       # Simulator tick rate (ticks/s)
sim_freq                                 1000000000000                       # Frequency of simulated ticks
sim_insts                                    20000003                       # Number of instructions simulated
sim_seconds                                  0.017880                       # Number of seconds simulated
sim_ticks                                 17880180500                       # Number of ticks simulated
system.cpu.dcache.ReadReq_accesses            3318403                       # number of ReadReq accesses(hits+misses)
system.cpu.dcache.ReadReq_avg_miss_latency 20171.983711                       # average ReadReq miss latency
system.cpu.dcache.ReadReq_avg_mshr_miss_latency 17225.817386                       # average ReadReq mshr miss latency
system.cpu.dcache.ReadReq_hits                3226560                       # number of ReadReq hits
system.cpu.dcache.ReadReq_miss_latency     1852655500                       # number of ReadReq miss cycles
system.cpu.dcache.ReadReq_miss_rate          0.027677                       # miss rate for ReadReq accesses
system.cpu.dcache.ReadReq_misses                91843                       # number of ReadReq misses
system.cpu.dcache.ReadReq_mshr_hits              7764                       # number of ReadReq MSHR hits
system.cpu.dcache.ReadReq_mshr_miss_latency   1448329500                       # number of ReadReq MSHR miss cycles
system.cpu.dcache.ReadReq_mshr_miss_rate     0.025337                       # mshr miss rate for ReadReq accesses
system.cpu.dcache.ReadReq_mshr_misses           84079                       # number of ReadReq MSHR misses
system.cpu.dcache.WriteReq_accesses           2822830                       # number of WriteReq accesses(hits+misses)
system.cpu.dcache.WriteReq_avg_miss_latency 33569.941715                       # average WriteReq miss latency
system.cpu.dcache.WriteReq_avg_mshr_miss_latency 30881.965413                       # average WriteReq mshr miss latency
system.cpu.dcache.WriteReq_hits               2818026                       # number of WriteReq hits
system.cpu.dcache.WriteReq_miss_latency     161270000                       # number of WriteReq miss cycles
system.cpu.dcache.WriteReq_miss_rate         0.001702                       # miss rate for WriteReq accesses
system.cpu.dcache.WriteReq_misses                4804                       # number of WriteReq misses
system.cpu.dcache.WriteReq_mshr_hits             1160                       # number of WriteReq MSHR hits
system.cpu.dcache.WriteReq_mshr_miss_latency    112503000                       # number of WriteReq MSHR miss cycles
system.cpu.dcache.WriteReq_mshr_miss_rate     0.001291                       # mshr miss rate for WriteReq accesses
system.cpu.dcache.WriteReq_mshr_misses           3643                       # number of WriteReq MSHR misses
system.cpu.dcache.avg_blocked_cycles::no_mshrs     no_value                       # average number of cycles each access was blocked
system.cpu.dcache.avg_blocked_cycles::no_targets 30454.545455                       # average number of cycles each access was blocked
system.cpu.dcache.avg_refs                  69.490046                       # Average number of references to valid blocks.
system.cpu.dcache.blocked::no_mshrs                 0                       # number of cycles access was blocked
system.cpu.dcache.blocked::no_targets             418                       # number of cycles access was blocked
system.cpu.dcache.blocked_cycles::no_mshrs            0                       # number of cycles access was blocked
system.cpu.dcache.blocked_cycles::no_targets     12730000                       # number of cycles access was blocked
system.cpu.dcache.cache_copies                      0                       # number of cache copies performed
system.cpu.dcache.demand_accesses             6141233                       # number of demand (read+write) accesses
system.cpu.dcache.demand_avg_miss_latency 20837.951514                       # average overall miss latency
system.cpu.dcache.demand_avg_mshr_miss_latency 17792.942477                       # average overall mshr miss latency
system.cpu.dcache.demand_hits                 6044586                       # number of demand (read+write) hits
system.cpu.dcache.demand_miss_latency      2013925500                       # number of demand (read+write) miss cycles
system.cpu.dcache.demand_miss_rate           0.015737                       # miss rate for demand accesses
system.cpu.dcache.demand_misses                 96647                       # number of demand (read+write) misses
system.cpu.dcache.demand_mshr_hits               8924                       # number of demand (read+write) MSHR hits
system.cpu.dcache.demand_mshr_miss_latency   1560832500                       # number of demand (read+write) MSHR miss cycles
system.cpu.dcache.demand_mshr_miss_rate      0.014284                       # mshr miss rate for demand accesses
system.cpu.dcache.demand_mshr_misses            87722                       # number of demand (read+write) MSHR misses
system.cpu.dcache.fast_writes                       0                       # number of fast writes performed
system.cpu.dcache.mshr_cap_events                   0                       # number of times MSHR cap was activated
system.cpu.dcache.no_allocate_misses                0                       # Number of misses that were no-allocate
system.cpu.dcache.occ_%::0                   0.980713                       # Average percentage of cache occupancy
system.cpu.dcache.occ_blocks::0           1004.250575                       # Average occupied blocks per context
system.cpu.dcache.overall_accesses            6141233                       # number of overall (read+write) accesses
system.cpu.dcache.overall_avg_miss_latency 20837.951514                       # average overall miss latency
system.cpu.dcache.overall_avg_mshr_miss_latency 17792.942477                       # average overall mshr miss latency
system.cpu.dcache.overall_avg_mshr_uncacheable_latency     no_value                       # average overall mshr uncacheable latency
system.cpu.dcache.overall_hits                6044586                       # number of overall hits
system.cpu.dcache.overall_miss_latency     2013925500                       # number of overall miss cycles
system.cpu.dcache.overall_miss_rate          0.015737                       # miss rate for overall accesses
system.cpu.dcache.overall_misses                96647                       # number of overall misses
system.cpu.dcache.overall_mshr_hits              8924                       # number of overall MSHR hits
system.cpu.dcache.overall_mshr_miss_latency   1560832500                       # number of overall MSHR miss cycles
system.cpu.dcache.overall_mshr_miss_rate     0.014284                       # mshr miss rate for overall accesses
system.cpu.dcache.overall_mshr_misses           87722                       # number of overall MSHR misses
system.cpu.dcache.overall_mshr_uncacheable_latency            0                       # number of overall MSHR uncacheable cycles
system.cpu.dcache.overall_mshr_uncacheable_misses            0                       # number of overall MSHR uncacheable misses
system.cpu.dcache.prefetch_accuracy          no_value                       # ratio of good prefetches to total prefetches
system.cpu.dcache.prefetch_hits                     0                       # number of prefetched blocks that were accessed
system.cpu.dcache.replacements                  85976                       # number of replacements
system.cpu.dcache.sampled_refs                  87000                       # Sample count of references to valid blocks.
system.cpu.dcache.soft_prefetch_mshr_full            0                       # number of mshr full events for SW prefetching instrutions
system.cpu.dcache.tagsinuse               1004.250575                       # Cycle average of tags in use
system.cpu.dcache.total_refs                  6045634                       # Total number of references to valid blocks.
system.cpu.dcache.warmup_cycle           502115115000                       # Cycle when the warmup percentage was hit.
system.cpu.dcache.writebacks                     3600                       # number of writebacks
system.cpu.dtb.data_accesses                        1                       # DTB accesses
system.cpu.dtb.data_acv                             0                       # DTB access violations
system.cpu.dtb.data_hits                            1                       # DTB hits
system.cpu.dtb.data_misses                          0                       # DTB misses
system.cpu.dtb.fetch_accesses                       0                       # ITB accesses
system.cpu.dtb.fetch_acv                            0                       # ITB acv
system.cpu.dtb.fetch_hits                           0                       # ITB hits
system.cpu.dtb.fetch_misses                         0                       # ITB misses
system.cpu.dtb.read_accesses                        0                       # DTB read accesses
system.cpu.dtb.read_acv                             0                       # DTB read access violations
system.cpu.dtb.read_hits                            0                       # DTB read hits
system.cpu.dtb.read_misses                          0                       # DTB read misses
system.cpu.dtb.write_accesses                       1                       # DTB write accesses
system.cpu.dtb.write_acv                            0                       # DTB write access violations
system.cpu.dtb.write_hits                           1                       # DTB write hits
system.cpu.dtb.write_misses                         0                       # DTB write misses
system.cpu.icache.ReadReq_accesses           12233175                       # number of ReadReq accesses(hits+misses)
system.cpu.icache.ReadReq_avg_miss_latency 48346.153846                       # average ReadReq miss latency
system.cpu.icache.ReadReq_avg_mshr_miss_latency 56937.500000                       # average ReadReq mshr miss latency
system.cpu.icache.ReadReq_hits               12233162                       # number of ReadReq hits
system.cpu.icache.ReadReq_miss_latency         628500                       # number of ReadReq miss cycles
system.cpu.icache.ReadReq_miss_rate          0.000001                       # miss rate for ReadReq accesses
system.cpu.icache.ReadReq_misses                   13                       # number of ReadReq misses
system.cpu.icache.ReadReq_mshr_hits                 4                       # number of ReadReq MSHR hits
system.cpu.icache.ReadReq_mshr_miss_latency       455500                       # number of ReadReq MSHR miss cycles
system.cpu.icache.ReadReq_mshr_miss_rate     0.000001                       # mshr miss rate for ReadReq accesses
system.cpu.icache.ReadReq_mshr_misses               8                       # number of ReadReq MSHR misses
system.cpu.icache.avg_blocked_cycles::no_mshrs     no_value                       # average number of cycles each access was blocked
system.cpu.icache.avg_blocked_cycles::no_targets        22500                       # average number of cycles each access was blocked
system.cpu.icache.avg_refs               1359240.222222                       # Average number of references to valid blocks.
system.cpu.icache.blocked::no_mshrs                 0                       # number of cycles access was blocked
system.cpu.icache.blocked::no_targets               1                       # number of cycles access was blocked
system.cpu.icache.blocked_cycles::no_mshrs            0                       # number of cycles access was blocked
system.cpu.icache.blocked_cycles::no_targets        22500                       # number of cycles access was blocked
system.cpu.icache.cache_copies                      0                       # number of cache copies performed
system.cpu.icache.demand_accesses            12233175                       # number of demand (read+write) accesses
system.cpu.icache.demand_avg_miss_latency 48346.153846                       # average overall miss latency
system.cpu.icache.demand_avg_mshr_miss_latency 56937.500000                       # average overall mshr miss latency
system.cpu.icache.demand_hits                12233162                       # number of demand (read+write) hits
system.cpu.icache.demand_miss_latency          628500                       # number of demand (read+write) miss cycles
system.cpu.icache.demand_miss_rate           0.000001                       # miss rate for demand accesses
system.cpu.icache.demand_misses                    13                       # number of demand (read+write) misses
system.cpu.icache.demand_mshr_hits                  4                       # number of demand (read+write) MSHR hits
system.cpu.icache.demand_mshr_miss_latency       455500                       # number of demand (read+write) MSHR miss cycles
system.cpu.icache.demand_mshr_miss_rate      0.000001                       # mshr miss rate for demand accesses
system.cpu.icache.demand_mshr_misses                8                       # number of demand (read+write) MSHR misses
system.cpu.icache.fast_writes                       0                       # number of fast writes performed
system.cpu.icache.mshr_cap_events                   0                       # number of times MSHR cap was activated
system.cpu.icache.no_allocate_misses                0                       # Number of misses that were no-allocate
system.cpu.icache.occ_%::0                   0.012817                       # Average percentage of cache occupancy
system.cpu.icache.occ_blocks::0              6.562321                       # Average occupied blocks per context
system.cpu.icache.overall_accesses           12233175                       # number of overall (read+write) accesses
system.cpu.icache.overall_avg_miss_latency 48346.153846                       # average overall miss latency
system.cpu.icache.overall_avg_mshr_miss_latency 56937.500000                       # average overall mshr miss latency
system.cpu.icache.overall_avg_mshr_uncacheable_latency     no_value                       # average overall mshr uncacheable latency
system.cpu.icache.overall_hits               12233162                       # number of overall hits
system.cpu.icache.overall_miss_latency         628500                       # number of overall miss cycles
system.cpu.icache.overall_miss_rate          0.000001                       # miss rate for overall accesses
system.cpu.icache.overall_misses                   13                       # number of overall misses
system.cpu.icache.overall_mshr_hits                 4                       # number of overall MSHR hits
system.cpu.icache.overall_mshr_miss_latency       455500                       # number of overall MSHR miss cycles
system.cpu.icache.overall_mshr_miss_rate     0.000001                       # mshr miss rate for overall accesses
system.cpu.icache.overall_mshr_misses               8                       # number of overall MSHR misses
system.cpu.icache.overall_mshr_uncacheable_latency            0                       # number of overall MSHR uncacheable cycles
system.cpu.icache.overall_mshr_uncacheable_misses            0                       # number of overall MSHR uncacheable misses
system.cpu.icache.prefetch_accuracy          no_value                       # ratio of good prefetches to total prefetches
system.cpu.icache.prefetch_hits                     0                       # number of prefetched blocks that were accessed
system.cpu.icache.replacements                      0                       # number of replacements
system.cpu.icache.sampled_refs                      9                       # Sample count of references to valid blocks.
system.cpu.icache.soft_prefetch_mshr_full            0                       # number of mshr full events for SW prefetching instrutions
system.cpu.icache.tagsinuse                  6.562321                       # Cycle average of tags in use
system.cpu.icache.total_refs                 12233162                       # Total number of references to valid blocks.
system.cpu.icache.warmup_cycle                      0                       # Cycle when the warmup percentage was hit.
system.cpu.icache.writebacks                        0                       # number of writebacks
system.cpu.idle_fraction                            0                       # Percentage of idle cycles
system.cpu.itb.data_accesses                        0                       # DTB accesses
system.cpu.itb.data_acv                             0                       # DTB access violations
system.cpu.itb.data_hits                            0                       # DTB hits
system.cpu.itb.data_misses                          0                       # DTB misses
system.cpu.itb.fetch_accesses                       2                       # ITB accesses
system.cpu.itb.fetch_acv                            0                       # ITB acv
system.cpu.itb.fetch_hits                           2                       # ITB hits
system.cpu.itb.fetch_misses                         0                       # ITB misses
system.cpu.itb.read_accesses                        0                       # DTB read accesses
system.cpu.itb.read_acv                             0                       # DTB read access violations
system.cpu.itb.read_hits                            0                       # DTB read hits
system.cpu.itb.read_misses                          0                       # DTB read misses
system.cpu.itb.write_accesses                       0                       # DTB write accesses
system.cpu.itb.write_acv                            0                       # DTB write access violations
system.cpu.itb.write_hits                           0                       # DTB write hits
system.cpu.itb.write_misses                         0                       # DTB write misses
system.cpu.not_idle_fraction                        1                       # Percentage of non-idle cycles
system.cpu.numCycles                                2                       # number of cpu cycles simulated
system.cpu.num_insts                                2                       # Number of instructions executed
system.cpu.num_refs                                 1                       # Number of memory references
system.cpu.workload.PROG:num_syscalls               0                       # Number of system calls
system.l2.HardPFReq_avg_mshr_miss_latency 32712.648585                       # average HardPFReq mshr miss latency
system.l2.HardPFReq_mshr_miss_latency       733908271                       # number of HardPFReq MSHR miss cycles
system.l2.HardPFReq_mshr_miss_rate                inf                       # mshr miss rate for HardPFReq accesses
system.l2.HardPFReq_mshr_misses                 22435                       # number of HardPFReq MSHR misses
system.l2.ReadExReq_accesses                     2921                       # number of ReadExReq accesses(hits+misses)
system.l2.ReadExReq_avg_miss_latency     57543.827160                       # average ReadExReq miss latency
system.l2.ReadExReq_avg_mshr_miss_latency 41726.205192                       # average ReadExReq mshr miss latency
system.l2.ReadExReq_hits                         2111                       # number of ReadExReq hits
system.l2.ReadExReq_miss_latency             46610500                       # number of ReadExReq miss cycles
system.l2.ReadExReq_miss_rate                0.277302                       # miss rate for ReadExReq accesses
system.l2.ReadExReq_misses                        810                       # number of ReadExReq misses
system.l2.ReadExReq_mshr_miss_latency        33756500                       # number of ReadExReq MSHR miss cycles
system.l2.ReadExReq_mshr_miss_rate           0.276960                       # mshr miss rate for ReadExReq accesses
system.l2.ReadExReq_mshr_misses                   809                       # number of ReadExReq MSHR misses
system.l2.ReadReq_accesses                      84088                       # number of ReadReq accesses(hits+misses)
system.l2.ReadReq_avg_miss_latency       58611.237230                       # average ReadReq miss latency
system.l2.ReadReq_avg_mshr_miss_latency  43306.941640                       # average ReadReq mshr miss latency
system.l2.ReadReq_hits                          73516                       # number of ReadReq hits
system.l2.ReadReq_miss_latency              619638000                       # number of ReadReq miss cycles
system.l2.ReadReq_miss_rate                  0.125725                       # miss rate for ReadReq accesses
system.l2.ReadReq_misses                        10572                       # number of ReadReq misses
system.l2.ReadReq_mshr_hits                       170                       # number of ReadReq MSHR hits
system.l2.ReadReq_mshr_miss_latency         450435500                       # number of ReadReq MSHR miss cycles
system.l2.ReadReq_mshr_miss_rate             0.123692                       # mshr miss rate for ReadReq accesses
system.l2.ReadReq_mshr_misses                   10401                       # number of ReadReq MSHR misses
system.l2.UpgradeReq_accesses                     723                       # number of UpgradeReq accesses(hits+misses)
system.l2.UpgradeReq_avg_miss_latency    56724.066390                       # average UpgradeReq miss latency
system.l2.UpgradeReq_avg_mshr_miss_latency 40746.196404                       # average UpgradeReq mshr miss latency
system.l2.UpgradeReq_miss_latency            41011500                       # number of UpgradeReq miss cycles
system.l2.UpgradeReq_miss_rate                      1                       # miss rate for UpgradeReq accesses
system.l2.UpgradeReq_misses                       723                       # number of UpgradeReq misses
system.l2.UpgradeReq_mshr_miss_latency       29459500                       # number of UpgradeReq MSHR miss cycles
system.l2.UpgradeReq_mshr_miss_rate                 1                       # mshr miss rate for UpgradeReq accesses
system.l2.UpgradeReq_mshr_misses                  723                       # number of UpgradeReq MSHR misses
system.l2.Writeback_accesses                     3600                       # number of Writeback accesses(hits+misses)
system.l2.Writeback_hits                         3600                       # number of Writeback hits
system.l2.avg_blocked_cycles::no_mshrs       no_value                       # average number of cycles each access was blocked
system.l2.avg_blocked_cycles::no_targets     no_value                       # average number of cycles each access was blocked
system.l2.avg_refs                           2.246061                       # Average number of references to valid blocks.
system.l2.blocked::no_mshrs                         0                       # number of cycles access was blocked
system.l2.blocked::no_targets                       0                       # number of cycles access was blocked
system.l2.blocked_cycles::no_mshrs                  0                       # number of cycles access was blocked
system.l2.blocked_cycles::no_targets                0                       # number of cycles access was blocked
system.l2.cache_copies                              0                       # number of cache copies performed
system.l2.demand_accesses                       87009                       # number of demand (read+write) accesses
system.l2.demand_avg_miss_latency        58535.274996                       # average overall miss latency
system.l2.demand_avg_mshr_miss_latency   43192.863515                       # average overall mshr miss latency
system.l2.demand_hits                           75627                       # number of demand (read+write) hits
system.l2.demand_miss_latency               666248500                       # number of demand (read+write) miss cycles
system.l2.demand_miss_rate                   0.130814                       # miss rate for demand accesses
system.l2.demand_misses                         11382                       # number of demand (read+write) misses
system.l2.demand_mshr_hits                        170                       # number of demand (read+write) MSHR hits
system.l2.demand_mshr_miss_latency          484192000                       # number of demand (read+write) MSHR miss cycles
system.l2.demand_mshr_miss_rate              0.128837                       # mshr miss rate for demand accesses
system.l2.demand_mshr_misses                    11210                       # number of demand (read+write) MSHR misses
system.l2.fast_writes                               0                       # number of fast writes performed
system.l2.mshr_cap_events                           0                       # number of times MSHR cap was activated
system.l2.no_allocate_misses                        0                       # Number of misses that were no-allocate
system.l2.occ_%::0                           0.633666                       # Average percentage of cache occupancy
system.l2.occ_%::1                           0.041123                       # Average percentage of cache occupancy
system.l2.occ_blocks::0                  10381.984167                       # Average occupied blocks per context
system.l2.occ_blocks::1                    673.763077                       # Average occupied blocks per context
system.l2.overall_accesses                      87009                       # number of overall (read+write) accesses
system.l2.overall_avg_miss_latency       58535.274996                       # average overall miss latency
system.l2.overall_avg_mshr_miss_latency  36204.496092                       # average overall mshr miss latency
system.l2.overall_avg_mshr_uncacheable_latency     no_value                       # average overall mshr uncacheable latency
system.l2.overall_hits                          75627                       # number of overall hits
system.l2.overall_miss_latency              666248500                       # number of overall miss cycles
system.l2.overall_miss_rate                  0.130814                       # miss rate for overall accesses
system.l2.overall_misses                        11382                       # number of overall misses
system.l2.overall_mshr_hits                       170                       # number of overall MSHR hits
system.l2.overall_mshr_miss_latency        1218100271                       # number of overall MSHR miss cycles
system.l2.overall_mshr_miss_rate             0.386684                       # mshr miss rate for overall accesses
system.l2.overall_mshr_misses                   33645                       # number of overall MSHR misses
system.l2.overall_mshr_uncacheable_latency            0                       # number of overall MSHR uncacheable cycles
system.l2.overall_mshr_uncacheable_misses            0                       # number of overall MSHR uncacheable misses
system.l2.prefetch_accuracy                  0.544328                       # ratio of good prefetches to total prefetches
system.l2.prefetch_hits                         12212                       # number of prefetched blocks that were accessed
system.l2.prefetcher.num_hwpf_already_in_prefetcher          207                       # number of hwpf that were already in the prefetch queue
system.l2.prefetcher.num_hwpf_evicted               0                       # number of hwpf removed due to no buffer left
system.l2.prefetcher.num_hwpf_identified        23028                       # number of hwpf identified
system.l2.prefetcher.num_hwpf_issued            22455                       # number of hwpf issued
system.l2.prefetcher.num_hwpf_removed_MSHR_hit          366                       # number of hwpf removed because MSHR allocated
system.l2.prefetcher.num_hwpf_span_page             0                       # number of hwpf spanning a virtual page
system.l2.prefetcher.num_hwpf_squashed_from_miss            0                       # number of hwpf that got squashed due to a miss aborting calculation time
system.l2.replacements                          18284                       # number of replacements
system.l2.sampled_refs                          33508                       # Sample count of references to valid blocks.
system.l2.soft_prefetch_mshr_full                   0                       # number of mshr full events for SW prefetching instrutions
system.l2.tagsinuse                      11055.747244                       # Cycle average of tags in use
system.l2.total_refs                            75261                       # Total number of references to valid blocks.
system.l2.warmup_cycle                              0                       # Cycle when the warmup percentage was hit.
system.l2.writebacks                             1619                       # number of writebacks
system.switch_cpus.dtb.data_accesses          2972120                       # DTB accesses
system.switch_cpus.dtb.data_acv                     0                       # DTB access violations
system.switch_cpus.dtb.data_hits              2969257                       # DTB hits
system.switch_cpus.dtb.data_misses               2863                       # DTB misses
system.switch_cpus.dtb.fetch_accesses               0                       # ITB accesses
system.switch_cpus.dtb.fetch_acv                    0                       # ITB acv
system.switch_cpus.dtb.fetch_hits                   0                       # ITB hits
system.switch_cpus.dtb.fetch_misses                 0                       # ITB misses
system.switch_cpus.dtb.read_accesses          1546660                       # DTB read accesses
system.switch_cpus.dtb.read_acv                     0                       # DTB read access violations
system.switch_cpus.dtb.read_hits              1543848                       # DTB read hits
system.switch_cpus.dtb.read_misses               2812                       # DTB read misses
system.switch_cpus.dtb.write_accesses         1425460                       # DTB write accesses
system.switch_cpus.dtb.write_acv                    0                       # DTB write access violations
system.switch_cpus.dtb.write_hits             1425409                       # DTB write hits
system.switch_cpus.dtb.write_misses                51                       # DTB write misses
system.switch_cpus.idle_fraction                    1                       # Percentage of idle cycles
system.switch_cpus.itb.data_accesses                0                       # DTB accesses
system.switch_cpus.itb.data_acv                     0                       # DTB access violations
system.switch_cpus.itb.data_hits                    0                       # DTB hits
system.switch_cpus.itb.data_misses                  0                       # DTB misses
system.switch_cpus.itb.fetch_accesses        10002866                       # ITB accesses
system.switch_cpus.itb.fetch_acv                    0                       # ITB acv
system.switch_cpus.itb.fetch_hits            10002865                       # ITB hits
system.switch_cpus.itb.fetch_misses                 1                       # ITB misses
system.switch_cpus.itb.read_accesses                0                       # DTB read accesses
system.switch_cpus.itb.read_acv                     0                       # DTB read access violations
system.switch_cpus.itb.read_hits                    0                       # DTB read hits
system.switch_cpus.itb.read_misses                  0                       # DTB read misses
system.switch_cpus.itb.write_accesses               0                       # DTB write accesses
system.switch_cpus.itb.write_acv                    0                       # DTB write access violations
system.switch_cpus.itb.write_hits                   0                       # DTB write hits
system.switch_cpus.itb.write_misses                 0                       # DTB write misses
system.switch_cpus.not_idle_fraction                0                       # Percentage of non-idle cycles
system.switch_cpus.numCycles                 27526822                       # number of cpu cycles simulated
system.switch_cpus.num_insts                 10000001                       # Number of instructions executed
system.switch_cpus.num_refs                   2972120                       # Number of memory references
system.switch_cpus_1.BPredUnit.BTBCorrect            0                       # Number of correct BTB predictions (this stat may not work properly.
system.switch_cpus_1.BPredUnit.BTBHits        2082766                       # Number of BTB hits
system.switch_cpus_1.BPredUnit.BTBLookups      2144189                       # Number of BTB lookups
system.switch_cpus_1.BPredUnit.RASInCorrect            0                       # Number of incorrect RAS predictions.
system.switch_cpus_1.BPredUnit.condIncorrect       159851                       # Number of conditional branches incorrect
system.switch_cpus_1.BPredUnit.condPredicted      2154504                       # Number of conditional branches predicted
system.switch_cpus_1.BPredUnit.lookups        2309898                       # Number of BP lookups
system.switch_cpus_1.BPredUnit.usedRAS              0                       # Number of times the RAS was used to get a target.
system.switch_cpus_1.commit.COM:branches      1623752                       # Number of branches committed
system.switch_cpus_1.commit.COM:bw_lim_events        92125                       # number cycles where commit BW limit reached
system.switch_cpus_1.commit.COM:bw_limited            0                       # number of insts not committed due to BW limits
system.switch_cpus_1.commit.COM:committed_per_cycle::samples      7750559                       # Number of insts commited each cycle
system.switch_cpus_1.commit.COM:committed_per_cycle::mean     1.341646                       # Number of insts commited each cycle
system.switch_cpus_1.commit.COM:committed_per_cycle::stdev     1.776826                       # Number of insts commited each cycle
system.switch_cpus_1.commit.COM:committed_per_cycle::underflows            0      0.00%      0.00% # Number of insts commited each cycle
system.switch_cpus_1.commit.COM:committed_per_cycle::0      3169824     40.90%     40.90% # Number of insts commited each cycle
system.switch_cpus_1.commit.COM:committed_per_cycle::1      2846049     36.72%     77.62% # Number of insts commited each cycle
system.switch_cpus_1.commit.COM:committed_per_cycle::2       168204      2.17%     79.79% # Number of insts commited each cycle
system.switch_cpus_1.commit.COM:committed_per_cycle::3        74513      0.96%     80.75% # Number of insts commited each cycle
system.switch_cpus_1.commit.COM:committed_per_cycle::4       756467      9.76%     90.51% # Number of insts commited each cycle
system.switch_cpus_1.commit.COM:committed_per_cycle::5       634002      8.18%     98.69% # Number of insts commited each cycle
system.switch_cpus_1.commit.COM:committed_per_cycle::6         5991      0.08%     98.77% # Number of insts commited each cycle
system.switch_cpus_1.commit.COM:committed_per_cycle::7         3384      0.04%     98.81% # Number of insts commited each cycle
system.switch_cpus_1.commit.COM:committed_per_cycle::8        92125      1.19%    100.00% # Number of insts commited each cycle
system.switch_cpus_1.commit.COM:committed_per_cycle::overflows            0      0.00%    100.00% # Number of insts commited each cycle
system.switch_cpus_1.commit.COM:committed_per_cycle::min_value            0                       # Number of insts commited each cycle
system.switch_cpus_1.commit.COM:committed_per_cycle::max_value            8                       # Number of insts commited each cycle
system.switch_cpus_1.commit.COM:committed_per_cycle::total      7750559                       # Number of insts commited each cycle
system.switch_cpus_1.commit.COM:count        10398508                       # Number of instructions committed
system.switch_cpus_1.commit.COM:loads         1606582                       # Number of loads committed
system.switch_cpus_1.commit.COM:membars             0                       # Number of memory barriers committed
system.switch_cpus_1.commit.COM:refs          3004003                       # Number of memory references committed
system.switch_cpus_1.commit.COM:swp_count            0                       # Number of s/w prefetches committed
system.switch_cpus_1.commit.branchMispredicts       159846                       # The number of times a branch was mispredicted
system.switch_cpus_1.commit.commitCommittedInsts     10398508                       # The number of committed instructions
system.switch_cpus_1.commit.commitSquashedInsts      2825567                       # The number of squashed insts skipped by commit
system.switch_cpus_1.committedInsts          10000000                       # Number of Instructions Simulated
system.switch_cpus_1.committedInsts_total     10000000                       # Number of Instructions Simulated
system.switch_cpus_1.cpi                     0.823354                       # CPI: Cycles Per Instruction
system.switch_cpus_1.cpi_total               0.823354                       # CPI: Total CPI of All Threads
system.switch_cpus_1.decode.DECODE:BlockedCycles        45827                       # Number of cycles decode is blocked
system.switch_cpus_1.decode.DECODE:BranchMispred          213                       # Number of times decode detected a branch misprediction
system.switch_cpus_1.decode.DECODE:BranchResolved       151325                       # Number of times decode resolved a branch
system.switch_cpus_1.decode.DECODE:DecodedInsts     14427266                       # Number of instructions handled by decode
system.switch_cpus_1.decode.DECODE:IdleCycles      4464204                       # Number of cycles decode is idle
system.switch_cpus_1.decode.DECODE:RunCycles      3238360                       # Number of cycles decode is running
system.switch_cpus_1.decode.DECODE:SquashCycles       471001                       # Number of cycles decode is squashing
system.switch_cpus_1.decode.DECODE:SquashedInsts           16                       # Number of squashed instructions handled by decode
system.switch_cpus_1.decode.DECODE:UnblockCycles         2167                       # Number of cycles decode is unblocking
system.switch_cpus_1.dtb.data_accesses        3534420                       # DTB accesses
system.switch_cpus_1.dtb.data_acv                   0                       # DTB access violations
system.switch_cpus_1.dtb.data_hits            3527987                       # DTB hits
system.switch_cpus_1.dtb.data_misses             6433                       # DTB misses
system.switch_cpus_1.dtb.fetch_accesses             0                       # ITB accesses
system.switch_cpus_1.dtb.fetch_acv                  0                       # ITB acv
system.switch_cpus_1.dtb.fetch_hits                 0                       # ITB hits
system.switch_cpus_1.dtb.fetch_misses               0                       # ITB misses
system.switch_cpus_1.dtb.read_accesses        1906031                       # DTB read accesses
system.switch_cpus_1.dtb.read_acv                   0                       # DTB read access violations
system.switch_cpus_1.dtb.read_hits            1899852                       # DTB read hits
system.switch_cpus_1.dtb.read_misses             6179                       # DTB read misses
system.switch_cpus_1.dtb.write_accesses       1628389                       # DTB write accesses
system.switch_cpus_1.dtb.write_acv                  0                       # DTB write access violations
system.switch_cpus_1.dtb.write_hits           1628135                       # DTB write hits
system.switch_cpus_1.dtb.write_misses             254                       # DTB write misses
system.switch_cpus_1.fetch.Branches           2309898                       # Number of branches that fetch encountered
system.switch_cpus_1.fetch.CacheLines         2230308                       # Number of cache lines fetched
system.switch_cpus_1.fetch.Cycles             5511950                       # Number of cycles fetch has run and was not squashing or blocked
system.switch_cpus_1.fetch.IcacheSquashes        42575                       # Number of outstanding Icache misses that were squashed
system.switch_cpus_1.fetch.Insts             14671362                       # Number of instructions fetch has processed
system.switch_cpus_1.fetch.SquashCycles        175956                       # Number of cycles fetch has spent squashing
system.switch_cpus_1.fetch.branchRate        0.280547                       # Number of branch fetches per cycle
system.switch_cpus_1.fetch.icacheStallCycles      2230308                       # Number of cycles fetch is stalled on an Icache miss
system.switch_cpus_1.fetch.predictedBranches      2082766                       # Number of branches that fetch has predicted taken
system.switch_cpus_1.fetch.rate              1.781903                       # Number of inst fetches per cycle
system.switch_cpus_1.fetch.rateDist::samples      8221560                       # Number of instructions fetched each cycle (Total)
system.switch_cpus_1.fetch.rateDist::mean     1.784499                       # Number of instructions fetched each cycle (Total)
system.switch_cpus_1.fetch.rateDist::stdev     2.705262                       # Number of instructions fetched each cycle (Total)
system.switch_cpus_1.fetch.rateDist::underflows            0      0.00%      0.00% # Number of instructions fetched each cycle (Total)
system.switch_cpus_1.fetch.rateDist::0        4939918     60.08%     60.08% # Number of instructions fetched each cycle (Total)
system.switch_cpus_1.fetch.rateDist::1         792067      9.63%     69.72% # Number of instructions fetched each cycle (Total)
system.switch_cpus_1.fetch.rateDist::2         172533      2.10%     71.82% # Number of instructions fetched each cycle (Total)
system.switch_cpus_1.fetch.rateDist::3          53529      0.65%     72.47% # Number of instructions fetched each cycle (Total)
system.switch_cpus_1.fetch.rateDist::4         537467      6.54%     79.01% # Number of instructions fetched each cycle (Total)
system.switch_cpus_1.fetch.rateDist::5         671504      8.17%     87.17% # Number of instructions fetched each cycle (Total)
system.switch_cpus_1.fetch.rateDist::6          29761      0.36%     87.54% # Number of instructions fetched each cycle (Total)
system.switch_cpus_1.fetch.rateDist::7         510560      6.21%     93.75% # Number of instructions fetched each cycle (Total)
system.switch_cpus_1.fetch.rateDist::8         514221      6.25%    100.00% # Number of instructions fetched each cycle (Total)
system.switch_cpus_1.fetch.rateDist::overflows            0      0.00%    100.00% # Number of instructions fetched each cycle (Total)
system.switch_cpus_1.fetch.rateDist::min_value            0                       # Number of instructions fetched each cycle (Total)
system.switch_cpus_1.fetch.rateDist::max_value            8                       # Number of instructions fetched each cycle (Total)
system.switch_cpus_1.fetch.rateDist::total      8221560                       # Number of instructions fetched each cycle (Total)
system.switch_cpus_1.idleCycles                 11978                       # Total number of cycles that the CPU has spent unscheduled due to idling
system.switch_cpus_1.iew.EXEC:branches        1982302                       # Number of branches executed
system.switch_cpus_1.iew.EXEC:nop              868219                       # number of nop insts executed
system.switch_cpus_1.iew.EXEC:rate           1.440059                       # Inst execution rate
system.switch_cpus_1.iew.EXEC:refs            3534420                       # number of memory reference insts executed
system.switch_cpus_1.iew.EXEC:stores          1628389                       # Number of stores executed
system.switch_cpus_1.iew.EXEC:swp                   0                       # number of swp insts executed
system.switch_cpus_1.iew.WB:consumers         8697314                       # num instructions consuming a value
system.switch_cpus_1.iew.WB:count            11780462                       # cumulative count of insts written-back
system.switch_cpus_1.iew.WB:fanout           0.765561                       # average fanout of values written-back
system.switch_cpus_1.iew.WB:penalized               0                       # number of instrctions required to write to 'other' IQ
system.switch_cpus_1.iew.WB:penalized_rate            0                       # fraction of instructions written-back that wrote to 'other' IQ
system.switch_cpus_1.iew.WB:producers         6658328                       # num instructions producing a value
system.switch_cpus_1.iew.WB:rate             1.430790                       # insts written-back per cycle
system.switch_cpus_1.iew.WB:sent             11789322                       # cumulative count of insts sent to commit
system.switch_cpus_1.iew.branchMispredicts       173258                       # Number of branch mispredicts detected at execute
system.switch_cpus_1.iew.iewBlockCycles          2170                       # Number of cycles IEW is blocking
system.switch_cpus_1.iew.iewDispLoadInsts      1996198                       # Number of dispatched load instructions
system.switch_cpus_1.iew.iewDispNonSpecInsts            0                       # Number of dispatched non-speculative instructions
system.switch_cpus_1.iew.iewDispSquashedInsts       393328                       # Number of squashed instructions skipped by dispatch
system.switch_cpus_1.iew.iewDispStoreInsts      1704024                       # Number of dispatched store instructions
system.switch_cpus_1.iew.iewDispatchedInsts     13318412                       # Number of instructions dispatched to IQ
system.switch_cpus_1.iew.iewExecLoadInsts      1906031                       # Number of load instructions executed
system.switch_cpus_1.iew.iewExecSquashedInsts       154362                       # Number of squashed instructions skipped in execute
system.switch_cpus_1.iew.iewExecutedInsts     11856780                       # Number of executed instructions
system.switch_cpus_1.iew.iewIQFullEvents           75                       # Number of times the IQ has become full, causing a stall
system.switch_cpus_1.iew.iewIdleCycles              0                       # Number of cycles IEW is idle
system.switch_cpus_1.iew.iewLSQFullEvents            1                       # Number of times the LSQ has become full, causing a stall
system.switch_cpus_1.iew.iewSquashCycles       471001                       # Number of cycles IEW is squashing
system.switch_cpus_1.iew.iewUnblockCycles           99                       # Number of cycles IEW is unblocking
system.switch_cpus_1.iew.lsq.thread.0.blockedLoads            0                       # Number of blocked loads due to partial load-store forwarding
system.switch_cpus_1.iew.lsq.thread.0.cacheBlocked         1586                       # Number of times an access to memory failed due to the cache being blocked
system.switch_cpus_1.iew.lsq.thread.0.forwLoads       123794                       # Number of loads that had data forwarded from stores
system.switch_cpus_1.iew.lsq.thread.0.ignoredResponses        10533                       # Number of memory responses ignored because the instruction is squashed
system.switch_cpus_1.iew.lsq.thread.0.invAddrLoads            0                       # Number of loads ignored due to an invalid address
system.switch_cpus_1.iew.lsq.thread.0.invAddrSwpfs            0                       # Number of software prefetches ignored due to an invalid address
system.switch_cpus_1.iew.lsq.thread.0.memOrderViolation        12123                       # Number of memory ordering violations
system.switch_cpus_1.iew.lsq.thread.0.rescheduledLoads            0                       # Number of loads that were rescheduled
system.switch_cpus_1.iew.lsq.thread.0.squashedLoads       389615                       # Number of loads squashed
system.switch_cpus_1.iew.lsq.thread.0.squashedStores       306602                       # Number of stores squashed
system.switch_cpus_1.iew.memOrderViolationEvents        12123                       # Number of memory order violations
system.switch_cpus_1.iew.predictedNotTakenIncorrect        28068                       # Number of branches that were predicted not taken incorrectly
system.switch_cpus_1.iew.predictedTakenIncorrect       145190                       # Number of branches that were predicted taken incorrectly
system.switch_cpus_1.ipc                     1.214545                       # IPC: Instructions Per Cycle
system.switch_cpus_1.ipc_total               1.214545                       # IPC: Total IPC of All Threads
system.switch_cpus_1.iq.ISSUE:FU_type_0::No_OpClass            0      0.00%      0.00% # Type of FU issued
system.switch_cpus_1.iq.ISSUE:FU_type_0::IntAlu      8438313     70.25%     70.25% # Type of FU issued
system.switch_cpus_1.iq.ISSUE:FU_type_0::IntMult            0      0.00%     70.25% # Type of FU issued
system.switch_cpus_1.iq.ISSUE:FU_type_0::IntDiv            0      0.00%     70.25% # Type of FU issued
system.switch_cpus_1.iq.ISSUE:FU_type_0::FloatAdd            0      0.00%     70.25% # Type of FU issued
system.switch_cpus_1.iq.ISSUE:FU_type_0::FloatCmp            0      0.00%     70.25% # Type of FU issued
system.switch_cpus_1.iq.ISSUE:FU_type_0::FloatCvt            0      0.00%     70.25% # Type of FU issued
system.switch_cpus_1.iq.ISSUE:FU_type_0::FloatMult            0      0.00%     70.25% # Type of FU issued
system.switch_cpus_1.iq.ISSUE:FU_type_0::FloatDiv            0      0.00%     70.25% # Type of FU issued
system.switch_cpus_1.iq.ISSUE:FU_type_0::FloatSqrt            0      0.00%     70.25% # Type of FU issued
system.switch_cpus_1.iq.ISSUE:FU_type_0::MemRead      1921047     15.99%     86.25% # Type of FU issued
system.switch_cpus_1.iq.ISSUE:FU_type_0::MemWrite      1651783     13.75%    100.00% # Type of FU issued
system.switch_cpus_1.iq.ISSUE:FU_type_0::IprAccess            0      0.00%    100.00% # Type of FU issued
system.switch_cpus_1.iq.ISSUE:FU_type_0::InstPrefetch            0      0.00%    100.00% # Type of FU issued
system.switch_cpus_1.iq.ISSUE:FU_type_0::total     12011143                       # Type of FU issued
system.switch_cpus_1.iq.ISSUE:fu_busy_cnt         4839                       # FU busy when requested
system.switch_cpus_1.iq.ISSUE:fu_busy_rate     0.000403                       # FU busy rate (busy events/executed inst)
system.switch_cpus_1.iq.ISSUE:fu_full::No_OpClass            0      0.00%      0.00% # attempts to use FU when none available
system.switch_cpus_1.iq.ISSUE:fu_full::IntAlu         4739     97.93%     97.93% # attempts to use FU when none available
system.switch_cpus_1.iq.ISSUE:fu_full::IntMult            0      0.00%     97.93% # attempts to use FU when none available
system.switch_cpus_1.iq.ISSUE:fu_full::IntDiv            0      0.00%     97.93% # attempts to use FU when none available
system.switch_cpus_1.iq.ISSUE:fu_full::FloatAdd            0      0.00%     97.93% # attempts to use FU when none available
system.switch_cpus_1.iq.ISSUE:fu_full::FloatCmp            0      0.00%     97.93% # attempts to use FU when none available
system.switch_cpus_1.iq.ISSUE:fu_full::FloatCvt            0      0.00%     97.93% # attempts to use FU when none available
system.switch_cpus_1.iq.ISSUE:fu_full::FloatMult            0      0.00%     97.93% # attempts to use FU when none available
system.switch_cpus_1.iq.ISSUE:fu_full::FloatDiv            0      0.00%     97.93% # attempts to use FU when none available
system.switch_cpus_1.iq.ISSUE:fu_full::FloatSqrt            0      0.00%     97.93% # attempts to use FU when none available
system.switch_cpus_1.iq.ISSUE:fu_full::MemRead           77      1.59%     99.52% # attempts to use FU when none available
system.switch_cpus_1.iq.ISSUE:fu_full::MemWrite           23      0.48%    100.00% # attempts to use FU when none available
system.switch_cpus_1.iq.ISSUE:fu_full::IprAccess            0      0.00%    100.00% # attempts to use FU when none available
system.switch_cpus_1.iq.ISSUE:fu_full::InstPrefetch            0      0.00%    100.00% # attempts to use FU when none available
system.switch_cpus_1.iq.ISSUE:issued_per_cycle::samples      8221560                       # Number of insts issued each cycle
system.switch_cpus_1.iq.ISSUE:issued_per_cycle::mean     1.460932                       # Number of insts issued each cycle
system.switch_cpus_1.iq.ISSUE:issued_per_cycle::stdev     1.312648                       # Number of insts issued each cycle
system.switch_cpus_1.iq.ISSUE:issued_per_cycle::underflows            0      0.00%      0.00% # Number of insts issued each cycle
system.switch_cpus_1.iq.ISSUE:issued_per_cycle::0      2167179     26.36%     26.36% # Number of insts issued each cycle
system.switch_cpus_1.iq.ISSUE:issued_per_cycle::1      2526802     30.73%     57.09% # Number of insts issued each cycle
system.switch_cpus_1.iq.ISSUE:issued_per_cycle::2      2320156     28.22%     85.31% # Number of insts issued each cycle
system.switch_cpus_1.iq.ISSUE:issued_per_cycle::3       187663      2.28%     87.60% # Number of insts issued each cycle
system.switch_cpus_1.iq.ISSUE:issued_per_cycle::4       853983     10.39%     97.98% # Number of insts issued each cycle
system.switch_cpus_1.iq.ISSUE:issued_per_cycle::5       134720      1.64%     99.62% # Number of insts issued each cycle
system.switch_cpus_1.iq.ISSUE:issued_per_cycle::6        26017      0.32%     99.94% # Number of insts issued each cycle
system.switch_cpus_1.iq.ISSUE:issued_per_cycle::7         4914      0.06%    100.00% # Number of insts issued each cycle
system.switch_cpus_1.iq.ISSUE:issued_per_cycle::8          126      0.00%    100.00% # Number of insts issued each cycle
system.switch_cpus_1.iq.ISSUE:issued_per_cycle::overflows            0      0.00%    100.00% # Number of insts issued each cycle
system.switch_cpus_1.iq.ISSUE:issued_per_cycle::min_value            0                       # Number of insts issued each cycle
system.switch_cpus_1.iq.ISSUE:issued_per_cycle::max_value            8                       # Number of insts issued each cycle
system.switch_cpus_1.iq.ISSUE:issued_per_cycle::total      8221560                       # Number of insts issued each cycle
system.switch_cpus_1.iq.ISSUE:rate           1.458807                       # Inst issue rate
system.switch_cpus_1.iq.iqInstsAdded         12450193                       # Number of instructions added to the IQ (excludes non-spec)
system.switch_cpus_1.iq.iqInstsIssued        12011143                       # Number of instructions issued
system.switch_cpus_1.iq.iqSquashedInstsExamined      2162964                       # Number of squashed instructions iterated over during squash; mainly for profiling
system.switch_cpus_1.iq.iqSquashedInstsIssued         1012                       # Number of squashed instructions issued
system.switch_cpus_1.iq.iqSquashedOperandsExamined       810650                       # Number of squashed operands that are examined and possibly removed from graph
system.switch_cpus_1.itb.data_accesses              0                       # DTB accesses
system.switch_cpus_1.itb.data_acv                   0                       # DTB access violations
system.switch_cpus_1.itb.data_hits                  0                       # DTB hits
system.switch_cpus_1.itb.data_misses                0                       # DTB misses
system.switch_cpus_1.itb.fetch_accesses       2230309                       # ITB accesses
system.switch_cpus_1.itb.fetch_acv                  0                       # ITB acv
system.switch_cpus_1.itb.fetch_hits           2230308                       # ITB hits
system.switch_cpus_1.itb.fetch_misses               1                       # ITB misses
system.switch_cpus_1.itb.read_accesses              0                       # DTB read accesses
system.switch_cpus_1.itb.read_acv                   0                       # DTB read access violations
system.switch_cpus_1.itb.read_hits                  0                       # DTB read hits
system.switch_cpus_1.itb.read_misses                0                       # DTB read misses
system.switch_cpus_1.itb.write_accesses             0                       # DTB write accesses
system.switch_cpus_1.itb.write_acv                  0                       # DTB write access violations
system.switch_cpus_1.itb.write_hits                 0                       # DTB write hits
system.switch_cpus_1.itb.write_misses               0                       # DTB write misses
system.switch_cpus_1.memDep0.conflictingLoads       613039                       # Number of conflicting loads.
system.switch_cpus_1.memDep0.conflictingStores       581926                       # Number of conflicting stores.
system.switch_cpus_1.memDep0.insertedLoads      1996198                       # Number of loads inserted to the mem dependence unit.
system.switch_cpus_1.memDep0.insertedStores      1704024                       # Number of stores inserted to the mem dependence unit.
system.switch_cpus_1.numCycles                8233538                       # number of cpu cycles simulated
system.switch_cpus_1.rename.RENAME:BlockCycles        33052                       # Number of cycles rename is blocking
system.switch_cpus_1.rename.RENAME:CommittedMaps      6978824                       # Number of HB maps that are committed
system.switch_cpus_1.rename.RENAME:IQFullEvents          290                       # Number of times rename has blocked due to IQ full
system.switch_cpus_1.rename.RENAME:IdleCycles      4515211                       # Number of cycles rename is idle
system.switch_cpus_1.rename.RENAME:LSQFullEvents        11825                       # Number of times rename has blocked due to LSQ full
system.switch_cpus_1.rename.RENAME:ROBFullEvents         1694                       # Number of times rename has blocked due to ROB full
system.switch_cpus_1.rename.RENAME:RenameLookups     18900033                       # Number of register rename lookups that rename has made
system.switch_cpus_1.rename.RENAME:RenamedInsts     14222346                       # Number of instructions processed by rename
system.switch_cpus_1.rename.RENAME:RenamedOperands      9290265                       # Number of destination operands rename has renamed
system.switch_cpus_1.rename.RENAME:RunCycles      3188977                       # Number of cycles rename is running
system.switch_cpus_1.rename.RENAME:SquashCycles       471001                       # Number of cycles rename is squashing
system.switch_cpus_1.rename.RENAME:UnblockCycles        13318                       # Number of cycles rename is unblocking
system.switch_cpus_1.rename.RENAME:UndoneMaps      2311428                       # Number of HB maps that are undone due to squashing
system.switch_cpus_1.rename.RENAME:serializeStallCycles            0                       # count of cycles rename stalled for serializing inst
system.switch_cpus_1.rename.RENAME:serializingInsts            0                       # count of serializing insts renamed
system.switch_cpus_1.rename.RENAME:skidInsts        26346                       # count of insts added to the skid buffer
system.switch_cpus_1.rename.RENAME:tempSerializingInsts            0                       # count of temporary serializing insts renamed
system.switch_cpus_1.timesIdled                   592                       # Number of times that the entire CPU went into an idle state and unscheduled itself

---------- End Simulation Statistics   ----------
